
rhoCentralFoam has been superseded and replaced by the more general
shockFluid solver module executed by the foamRun application:

    foamRun -solver shockFluid

/*---------------------------------------------------------------------------*\
  =========                 |
  \\      /  F ield         | OpenFOAM: The Open Source CFD Toolbox
   \\    /   O peration     | Website:  https://openfoam.org
    \\  /    A nd           | Version:  12
     \\/     M anipulation  |
\*---------------------------------------------------------------------------*/
Build  : 12-6aa359dae696
Exec   : foamRun -solver shockFluid
Date   : Dec 23 2024
Time   : 19:02:36
Host   : "LAPTOP-4O98FBV9"
PID    : 2068
I/O    : uncollated
Case   : /home/bsa/OpenFOAM/bsa-12/run/sod
nProcs : 1
sigFpe : Enabling floating point exception trapping (FOAM_SIGFPE).
fileModificationChecking : Monitoring run-time modified files using timeStampMaster (fileModificationSkew 10)
allowSystemOperations : Allowing user-supplied system call operations

// * * * * * * * * * * * * * * * * * * * * * * * * * * * * * * * * * * * * * //
Create time

Create mesh for time = 0

Selecting solver shockFluid
Selecting thermodynamics package 
{
    type            hePsiThermo;
    mixture         pureMixture;
    transport       const;
    thermo          hConst;
    equationOfState perfectGas;
    specie          specie;
    energy          sensibleInternalEnergy;
}

--> FOAM Warning : 
    From function const Foam::HashTable<Foam::List<int>, Foam::word>& Foam::polyBoundaryMesh::groupPatchIndices() const
    in file meshes/polyMesh/polyBoundaryMesh/polyBoundaryMesh.C at line 506
    Removing patchGroup 'empty' which clashes with patch 1 of the same name.
Courant Number mean: 0.000559075 max: 0.000589516

PIMPLE: No convergence criteria found


PIMPLE: No corrector convergence criteria found
        Calculations will do 2 corrections


PIMPLE: Operating solver in transient mode with 2 outer correctors



Starting time loop

Courant Number mean: 0.000559075 max: 0.000589516
deltaT = 1.19999e-06
Time = 1.19999e-06s

PIMPLE: Iteration 1
diagonal:  Solving for rho, Initial residual = 0, Final residual = 0, No Iterations 0
diagonal:  Solving for Ux, Initial residual = 0, Final residual = 0, No Iterations 0
diagonal:  Solving for e, Initial residual = 0, Final residual = 0, No Iterations 0
PIMPLE: Iteration 2
diagonal:  Solving for rho, Initial residual = 0, Final residual = 0, No Iterations 0
diagonal:  Solving for Ux, Initial residual = 0, Final residual = 0, No Iterations 0
diagonal:  Solving for e, Initial residual = 0, Final residual = 0, No Iterations 0
ExecutionTime = 0.096 s  ClockTime = 0 s

Courant Number mean: 0.000670889 max: 0.000707648
deltaT = 1.43997e-06
Time = 2.63996e-06s

PIMPLE: Iteration 1
diagonal:  Solving for rho, Initial residual = 0, Final residual = 0, No Iterations 0
diagonal:  Solving for Ux, Initial residual = 0, Final residual = 0, No Iterations 0
diagonal:  Solving for e, Initial residual = 0, Final residual = 0, No Iterations 0
PIMPLE: Iteration 2
diagonal:  Solving for rho, Initial residual = 0, Final residual = 0, No Iterations 0
diagonal:  Solving for Ux, Initial residual = 0, Final residual = 0, No Iterations 0
diagonal:  Solving for e, Initial residual = 0, Final residual = 0, No Iterations 0
ExecutionTime = 0.097133 s  ClockTime = 0 s

Courant Number mean: 0.000805063 max: 0.000849507
deltaT = 1.72797e-06
Time = 4.36793e-06s

PIMPLE: Iteration 1
diagonal:  Solving for rho, Initial residual = 0, Final residual = 0, No Iterations 0
diagonal:  Solving for Ux, Initial residual = 0, Final residual = 0, No Iterations 0
diagonal:  Solving for e, Initial residual = 0, Final residual = 0, No Iterations 0
PIMPLE: Iteration 2
diagonal:  Solving for rho, Initial residual = 0, Final residual = 0, No Iterations 0
diagonal:  Solving for Ux, Initial residual = 0, Final residual = 0, No Iterations 0
diagonal:  Solving for e, Initial residual = 0, Final residual = 0, No Iterations 0
ExecutionTime = 0.098287 s  ClockTime = 0 s

Courant Number mean: 0.000966085 max: 0.0010199
deltaT = 2.07352e-06
Time = 6.44145e-06s

PIMPLE: Iteration 1
diagonal:  Solving for rho, Initial residual = 0, Final residual = 0, No Iterations 0
diagonal:  Solving for Ux, Initial residual = 0, Final residual = 0, No Iterations 0
diagonal:  Solving for e, Initial residual = 0, Final residual = 0, No Iterations 0
PIMPLE: Iteration 2
diagonal:  Solving for rho, Initial residual = 0, Final residual = 0, No Iterations 0
diagonal:  Solving for Ux, Initial residual = 0, Final residual = 0, No Iterations 0
diagonal:  Solving for e, Initial residual = 0, Final residual = 0, No Iterations 0
ExecutionTime = 0.099318 s  ClockTime = 0 s

Courant Number mean: 0.00115929 max: 0.00122456
deltaT = 2.48821e-06
Time = 8.92966e-06s

PIMPLE: Iteration 1
diagonal:  Solving for rho, Initial residual = 0, Final residual = 0, No Iterations 0
diagonal:  Solving for Ux, Initial residual = 0, Final residual = 0, No Iterations 0
diagonal:  Solving for e, Initial residual = 0, Final residual = 0, No Iterations 0
PIMPLE: Iteration 2
diagonal:  Solving for rho, Initial residual = 0, Final residual = 0, No Iterations 0
diagonal:  Solving for Ux, Initial residual = 0, Final residual = 0, No Iterations 0
diagonal:  Solving for e, Initial residual = 0, Final residual = 0, No Iterations 0
ExecutionTime = 0.100344 s  ClockTime = 0 s

Courant Number mean: 0.00139116 max: 0.00147048
deltaT = 2.98579e-06
Time = 1.19154e-05s

PIMPLE: Iteration 1
diagonal:  Solving for rho, Initial residual = 0, Final residual = 0, No Iterations 0
diagonal:  Solving for Ux, Initial residual = 0, Final residual = 0, No Iterations 0
diagonal:  Solving for e, Initial residual = 0, Final residual = 0, No Iterations 0
PIMPLE: Iteration 2
diagonal:  Solving for rho, Initial residual = 0, Final residual = 0, No Iterations 0
diagonal:  Solving for Ux, Initial residual = 0, Final residual = 0, No Iterations 0
diagonal:  Solving for e, Initial residual = 0, Final residual = 0, No Iterations 0
ExecutionTime = 0.101396 s  ClockTime = 0 s

Courant Number mean: 0.00166939 max: 0.001766
deltaT = 3.5829e-06
Time = 1.54983e-05s

PIMPLE: Iteration 1
diagonal:  Solving for rho, Initial residual = 0, Final residual = 0, No Iterations 0
diagonal:  Solving for Ux, Initial residual = 0, Final residual = 0, No Iterations 0
diagonal:  Solving for e, Initial residual = 0, Final residual = 0, No Iterations 0
PIMPLE: Iteration 2
diagonal:  Solving for rho, Initial residual = 0, Final residual = 0, No Iterations 0
diagonal:  Solving for Ux, Initial residual = 0, Final residual = 0, No Iterations 0
diagonal:  Solving for e, Initial residual = 0, Final residual = 0, No Iterations 0
ExecutionTime = 0.102463 s  ClockTime = 0 s

Courant Number mean: 0.00200328 max: 0.0021213
deltaT = 4.29948e-06
Time = 1.97978e-05s

PIMPLE: Iteration 1
diagonal:  Solving for rho, Initial residual = 0, Final residual = 0, No Iterations 0
diagonal:  Solving for Ux, Initial residual = 0, Final residual = 0, No Iterations 0
diagonal:  Solving for e, Initial residual = 0, Final residual = 0, No Iterations 0
PIMPLE: Iteration 2
diagonal:  Solving for rho, Initial residual = 0, Final residual = 0, No Iterations 0
diagonal:  Solving for Ux, Initial residual = 0, Final residual = 0, No Iterations 0
diagonal:  Solving for e, Initial residual = 0, Final residual = 0, No Iterations 0
ExecutionTime = 0.103824 s  ClockTime = 0 s

Courant Number mean: 0.00240399 max: 0.00254861
deltaT = 5.1592e-06
Time = 2.4957e-05s

PIMPLE: Iteration 1
diagonal:  Solving for rho, Initial residual = 0, Final residual = 0, No Iterations 0
diagonal:  Solving for Ux, Initial residual = 0, Final residual = 0, No Iterations 0
diagonal:  Solving for e, Initial residual = 0, Final residual = 0, No Iterations 0
PIMPLE: Iteration 2
diagonal:  Solving for rho, Initial residual = 0, Final residual = 0, No Iterations 0
diagonal:  Solving for Ux, Initial residual = 0, Final residual = 0, No Iterations 0
diagonal:  Solving for e, Initial residual = 0, Final residual = 0, No Iterations 0
ExecutionTime = 0.105472 s  ClockTime = 0 s

Courant Number mean: 0.00288477 max: 0.00307355
deltaT = 6.19079e-06
Time = 3.11478e-05s

PIMPLE: Iteration 1
diagonal:  Solving for rho, Initial residual = 0, Final residual = 0, No Iterations 0
diagonal:  Solving for Ux, Initial residual = 0, Final residual = 0, No Iterations 0
diagonal:  Solving for e, Initial residual = 0, Final residual = 0, No Iterations 0
PIMPLE: Iteration 2
diagonal:  Solving for rho, Initial residual = 0, Final residual = 0, No Iterations 0
diagonal:  Solving for Ux, Initial residual = 0, Final residual = 0, No Iterations 0
diagonal:  Solving for e, Initial residual = 0, Final residual = 0, No Iterations 0
ExecutionTime = 0.106702 s  ClockTime = 0 s

Courant Number mean: 0.0034617 max: 0.00374479
deltaT = 7.42876e-06
Time = 3.85766e-05s

PIMPLE: Iteration 1
diagonal:  Solving for rho, Initial residual = 0, Final residual = 0, No Iterations 0
diagonal:  Solving for Ux, Initial residual = 0, Final residual = 0, No Iterations 0
diagonal:  Solving for e, Initial residual = 0, Final residual = 0, No Iterations 0
PIMPLE: Iteration 2
diagonal:  Solving for rho, Initial residual = 0, Final residual = 0, No Iterations 0
diagonal:  Solving for Ux, Initial residual = 0, Final residual = 0, No Iterations 0
diagonal:  Solving for e, Initial residual = 0, Final residual = 0, No Iterations 0
ExecutionTime = 0.107739 s  ClockTime = 0 s

Courant Number mean: 0.00415411 max: 0.00457518
deltaT = 8.91398e-06
Time = 4.74906e-05s

PIMPLE: Iteration 1
diagonal:  Solving for rho, Initial residual = 0, Final residual = 0, No Iterations 0
diagonal:  Solving for Ux, Initial residual = 0, Final residual = 0, No Iterations 0
diagonal:  Solving for e, Initial residual = 0, Final residual = 0, No Iterations 0
PIMPLE: Iteration 2
diagonal:  Solving for rho, Initial residual = 0, Final residual = 0, No Iterations 0
diagonal:  Solving for Ux, Initial residual = 0, Final residual = 0, No Iterations 0
diagonal:  Solving for e, Initial residual = 0, Final residual = 0, No Iterations 0
ExecutionTime = 0.108785 s  ClockTime = 0 s

Courant Number mean: 0.00498492 max: 0.00562695
deltaT = 1.06958e-05
Time = 5.81864e-05s

PIMPLE: Iteration 1
diagonal:  Solving for rho, Initial residual = 0, Final residual = 0, No Iterations 0
diagonal:  Solving for Ux, Initial residual = 0, Final residual = 0, No Iterations 0
diagonal:  Solving for e, Initial residual = 0, Final residual = 0, No Iterations 0
PIMPLE: Iteration 2
diagonal:  Solving for rho, Initial residual = 0, Final residual = 0, No Iterations 0
diagonal:  Solving for Ux, Initial residual = 0, Final residual = 0, No Iterations 0
diagonal:  Solving for e, Initial residual = 0, Final residual = 0, No Iterations 0
ExecutionTime = 0.109845 s  ClockTime = 0 s

Courant Number mean: 0.00598177 max: 0.00694615
deltaT = 1.28344e-05
Time = 7.10208e-05s

PIMPLE: Iteration 1
diagonal:  Solving for rho, Initial residual = 0, Final residual = 0, No Iterations 0
diagonal:  Solving for Ux, Initial residual = 0, Final residual = 0, No Iterations 0
diagonal:  Solving for e, Initial residual = 0, Final residual = 0, No Iterations 0
PIMPLE: Iteration 2
diagonal:  Solving for rho, Initial residual = 0, Final residual = 0, No Iterations 0
diagonal:  Solving for Ux, Initial residual = 0, Final residual = 0, No Iterations 0
diagonal:  Solving for e, Initial residual = 0, Final residual = 0, No Iterations 0
ExecutionTime = 0.110808 s  ClockTime = 0 s

Courant Number mean: 0.00717838 max: 0.00860722
deltaT = 1.53998e-05
Time = 8.64206e-05s

PIMPLE: Iteration 1
diagonal:  Solving for rho, Initial residual = 0, Final residual = 0, No Iterations 0
diagonal:  Solving for Ux, Initial residual = 0, Final residual = 0, No Iterations 0
diagonal:  Solving for e, Initial residual = 0, Final residual = 0, No Iterations 0
PIMPLE: Iteration 2
diagonal:  Solving for rho, Initial residual = 0, Final residual = 0, No Iterations 0
diagonal:  Solving for Ux, Initial residual = 0, Final residual = 0, No Iterations 0
diagonal:  Solving for e, Initial residual = 0, Final residual = 0, No Iterations 0
ExecutionTime = 0.111815 s  ClockTime = 0 s

Courant Number mean: 0.00861395 max: 0.0107057
deltaT = 1.84786e-05
Time = 0.000104899s

PIMPLE: Iteration 1
diagonal:  Solving for rho, Initial residual = 0, Final residual = 0, No Iterations 0
diagonal:  Solving for Ux, Initial residual = 0, Final residual = 0, No Iterations 0
diagonal:  Solving for e, Initial residual = 0, Final residual = 0, No Iterations 0
PIMPLE: Iteration 2
diagonal:  Solving for rho, Initial residual = 0, Final residual = 0, No Iterations 0
diagonal:  Solving for Ux, Initial residual = 0, Final residual = 0, No Iterations 0
diagonal:  Solving for e, Initial residual = 0, Final residual = 0, No Iterations 0
ExecutionTime = 0.112795 s  ClockTime = 0 s

Courant Number mean: 0.0103372 max: 0.0133654
deltaT = 2.21743e-05
Time = 0.000127073s

PIMPLE: Iteration 1
diagonal:  Solving for rho, Initial residual = 0, Final residual = 0, No Iterations 0
diagonal:  Solving for Ux, Initial residual = 0, Final residual = 0, No Iterations 0
diagonal:  Solving for e, Initial residual = 0, Final residual = 0, No Iterations 0
PIMPLE: Iteration 2
diagonal:  Solving for rho, Initial residual = 0, Final residual = 0, No Iterations 0
diagonal:  Solving for Ux, Initial residual = 0, Final residual = 0, No Iterations 0
diagonal:  Solving for e, Initial residual = 0, Final residual = 0, No Iterations 0
ExecutionTime = 0.113828 s  ClockTime = 0 s

Courant Number mean: 0.0124061 max: 0.0167402
deltaT = 2.66044e-05
Time = 0.000153678s

PIMPLE: Iteration 1
diagonal:  Solving for rho, Initial residual = 0, Final residual = 0, No Iterations 0
diagonal:  Solving for Ux, Initial residual = 0, Final residual = 0, No Iterations 0
diagonal:  Solving for e, Initial residual = 0, Final residual = 0, No Iterations 0
PIMPLE: Iteration 2
diagonal:  Solving for rho, Initial residual = 0, Final residual = 0, No Iterations 0
diagonal:  Solving for Ux, Initial residual = 0, Final residual = 0, No Iterations 0
diagonal:  Solving for e, Initial residual = 0, Final residual = 0, No Iterations 0
ExecutionTime = 0.11484 s  ClockTime = 0 s

Courant Number mean: 0.0148866 max: 0.0210105
deltaT = 3.19202e-05
Time = 0.000185598s

PIMPLE: Iteration 1
diagonal:  Solving for rho, Initial residual = 0, Final residual = 0, No Iterations 0
diagonal:  Solving for Ux, Initial residual = 0, Final residual = 0, No Iterations 0
diagonal:  Solving for e, Initial residual = 0, Final residual = 0, No Iterations 0
PIMPLE: Iteration 2
diagonal:  Solving for rho, Initial residual = 0, Final residual = 0, No Iterations 0
diagonal:  Solving for Ux, Initial residual = 0, Final residual = 0, No Iterations 0
diagonal:  Solving for e, Initial residual = 0, Final residual = 0, No Iterations 0
ExecutionTime = 0.115923 s  ClockTime = 0 s

Courant Number mean: 0.0178636 max: 0.0263902
deltaT = 3.83018e-05
Time = 0.0002239s

PIMPLE: Iteration 1
diagonal:  Solving for rho, Initial residual = 0, Final residual = 0, No Iterations 0
diagonal:  Solving for Ux, Initial residual = 0, Final residual = 0, No Iterations 0
diagonal:  Solving for e, Initial residual = 0, Final residual = 0, No Iterations 0
PIMPLE: Iteration 2
diagonal:  Solving for rho, Initial residual = 0, Final residual = 0, No Iterations 0
diagonal:  Solving for Ux, Initial residual = 0, Final residual = 0, No Iterations 0
diagonal:  Solving for e, Initial residual = 0, Final residual = 0, No Iterations 0
ExecutionTime = 0.117052 s  ClockTime = 0 s

Courant Number mean: 0.0214381 max: 0.0331058
deltaT = 4.59586e-05
Time = 0.000269858s

PIMPLE: Iteration 1
diagonal:  Solving for rho, Initial residual = 0, Final residual = 0, No Iterations 0
diagonal:  Solving for Ux, Initial residual = 0, Final residual = 0, No Iterations 0
diagonal:  Solving for e, Initial residual = 0, Final residual = 0, No Iterations 0
PIMPLE: Iteration 2
diagonal:  Solving for rho, Initial residual = 0, Final residual = 0, No Iterations 0
diagonal:  Solving for Ux, Initial residual = 0, Final residual = 0, No Iterations 0
diagonal:  Solving for e, Initial residual = 0, Final residual = 0, No Iterations 0
ExecutionTime = 0.118137 s  ClockTime = 0 s

Courant Number mean: 0.0257277 max: 0.0413652
deltaT = 5.513e-05
Time = 0.000324988s

PIMPLE: Iteration 1
diagonal:  Solving for rho, Initial residual = 0, Final residual = 0, No Iterations 0
diagonal:  Solving for Ux, Initial residual = 0, Final residual = 0, No Iterations 0
diagonal:  Solving for e, Initial residual = 0, Final residual = 0, No Iterations 0
PIMPLE: Iteration 2
diagonal:  Solving for rho, Initial residual = 0, Final residual = 0, No Iterations 0
diagonal:  Solving for Ux, Initial residual = 0, Final residual = 0, No Iterations 0
diagonal:  Solving for e, Initial residual = 0, Final residual = 0, No Iterations 0
ExecutionTime = 0.1192 s  ClockTime = 0 s

Courant Number mean: 0.0308665 max: 0.0513089
deltaT = 6.61413e-05
Time = 0.00039113s

PIMPLE: Iteration 1
diagonal:  Solving for rho, Initial residual = 0, Final residual = 0, No Iterations 0
diagonal:  Solving for Ux, Initial residual = 0, Final residual = 0, No Iterations 0
diagonal:  Solving for e, Initial residual = 0, Final residual = 0, No Iterations 0
PIMPLE: Iteration 2
diagonal:  Solving for rho, Initial residual = 0, Final residual = 0, No Iterations 0
diagonal:  Solving for Ux, Initial residual = 0, Final residual = 0, No Iterations 0
diagonal:  Solving for e, Initial residual = 0, Final residual = 0, No Iterations 0
ExecutionTime = 0.120696 s  ClockTime = 0 s

Courant Number mean: 0.0370373 max: 0.063145
deltaT = 7.93696e-05
Time = 0.000470499s

PIMPLE: Iteration 1
diagonal:  Solving for rho, Initial residual = 0, Final residual = 0, No Iterations 0
diagonal:  Solving for Ux, Initial residual = 0, Final residual = 0, No Iterations 0
diagonal:  Solving for e, Initial residual = 0, Final residual = 0, No Iterations 0
PIMPLE: Iteration 2
diagonal:  Solving for rho, Initial residual = 0, Final residual = 0, No Iterations 0
diagonal:  Solving for Ux, Initial residual = 0, Final residual = 0, No Iterations 0
diagonal:  Solving for e, Initial residual = 0, Final residual = 0, No Iterations 0
ExecutionTime = 0.121799 s  ClockTime = 0 s

Courant Number mean: 0.0444519 max: 0.0771766
deltaT = 9.52435e-05
Time = 0.000565743s

PIMPLE: Iteration 1
diagonal:  Solving for rho, Initial residual = 0, Final residual = 0, No Iterations 0
diagonal:  Solving for Ux, Initial residual = 0, Final residual = 0, No Iterations 0
diagonal:  Solving for e, Initial residual = 0, Final residual = 0, No Iterations 0
PIMPLE: Iteration 2
diagonal:  Solving for rho, Initial residual = 0, Final residual = 0, No Iterations 0
diagonal:  Solving for Ux, Initial residual = 0, Final residual = 0, No Iterations 0
diagonal:  Solving for e, Initial residual = 0, Final residual = 0, No Iterations 0
ExecutionTime = 0.122839 s  ClockTime = 0 s

Courant Number mean: 0.0533519 max: 0.0935728
deltaT = 0.000114292
Time = 0.000680035s

PIMPLE: Iteration 1
diagonal:  Solving for rho, Initial residual = 0, Final residual = 0, No Iterations 0
diagonal:  Solving for Ux, Initial residual = 0, Final residual = 0, No Iterations 0
diagonal:  Solving for e, Initial residual = 0, Final residual = 0, No Iterations 0
PIMPLE: Iteration 2
diagonal:  Solving for rho, Initial residual = 0, Final residual = 0, No Iterations 0
diagonal:  Solving for Ux, Initial residual = 0, Final residual = 0, No Iterations 0
diagonal:  Solving for e, Initial residual = 0, Final residual = 0, No Iterations 0
ExecutionTime = 0.123852 s  ClockTime = 0 s

Courant Number mean: 0.0640357 max: 0.114637
deltaT = 0.000136993
Time = 0.000817028s

PIMPLE: Iteration 1
diagonal:  Solving for rho, Initial residual = 0, Final residual = 0, No Iterations 0
diagonal:  Solving for Ux, Initial residual = 0, Final residual = 0, No Iterations 0
diagonal:  Solving for e, Initial residual = 0, Final residual = 0, No Iterations 0
PIMPLE: Iteration 2
diagonal:  Solving for rho, Initial residual = 0, Final residual = 0, No Iterations 0
diagonal:  Solving for Ux, Initial residual = 0, Final residual = 0, No Iterations 0
diagonal:  Solving for e, Initial residual = 0, Final residual = 0, No Iterations 0
ExecutionTime = 0.124865 s  ClockTime = 0 s

Courant Number mean: 0.0767734 max: 0.142883
deltaT = 0.00016421
Time = 0.000981238s

PIMPLE: Iteration 1
diagonal:  Solving for rho, Initial residual = 0, Final residual = 0, No Iterations 0
diagonal:  Solving for Ux, Initial residual = 0, Final residual = 0, No Iterations 0
diagonal:  Solving for e, Initial residual = 0, Final residual = 0, No Iterations 0
PIMPLE: Iteration 2
diagonal:  Solving for rho, Initial residual = 0, Final residual = 0, No Iterations 0
diagonal:  Solving for Ux, Initial residual = 0, Final residual = 0, No Iterations 0
diagonal:  Solving for e, Initial residual = 0, Final residual = 0, No Iterations 0
ExecutionTime = 0.125859 s  ClockTime = 0 s

Courant Number mean: 0.0920515 max: 0.175892
deltaT = 0.000186476
Time = 0.00116771s

PIMPLE: Iteration 1
diagonal:  Solving for rho, Initial residual = 0, Final residual = 0, No Iterations 0
diagonal:  Solving for Ux, Initial residual = 0, Final residual = 0, No Iterations 0
diagonal:  Solving for e, Initial residual = 0, Final residual = 0, No Iterations 0
PIMPLE: Iteration 2
diagonal:  Solving for rho, Initial residual = 0, Final residual = 0, No Iterations 0
diagonal:  Solving for Ux, Initial residual = 0, Final residual = 0, No Iterations 0
diagonal:  Solving for e, Initial residual = 0, Final residual = 0, No Iterations 0
ExecutionTime = 0.126874 s  ClockTime = 0 s

Courant Number mean: 0.104565 max: 0.201508
deltaT = 0.000185079
Time = 0.00135279s

PIMPLE: Iteration 1
diagonal:  Solving for rho, Initial residual = 0, Final residual = 0, No Iterations 0
diagonal:  Solving for Ux, Initial residual = 0, Final residual = 0, No Iterations 0
diagonal:  Solving for e, Initial residual = 0, Final residual = 0, No Iterations 0
PIMPLE: Iteration 2
diagonal:  Solving for rho, Initial residual = 0, Final residual = 0, No Iterations 0
diagonal:  Solving for Ux, Initial residual = 0, Final residual = 0, No Iterations 0
diagonal:  Solving for e, Initial residual = 0, Final residual = 0, No Iterations 0
ExecutionTime = 0.12793 s  ClockTime = 0 s

Courant Number mean: 0.103814 max: 0.199756
deltaT = 0.000185079
Time = 0.00153787s

PIMPLE: Iteration 1
diagonal:  Solving for rho, Initial residual = 0, Final residual = 0, No Iterations 0
diagonal:  Solving for Ux, Initial residual = 0, Final residual = 0, No Iterations 0
diagonal:  Solving for e, Initial residual = 0, Final residual = 0, No Iterations 0
PIMPLE: Iteration 2
diagonal:  Solving for rho, Initial residual = 0, Final residual = 0, No Iterations 0
diagonal:  Solving for Ux, Initial residual = 0, Final residual = 0, No Iterations 0
diagonal:  Solving for e, Initial residual = 0, Final residual = 0, No Iterations 0
ExecutionTime = 0.128959 s  ClockTime = 0 s

Courant Number mean: 0.103848 max: 0.198916
deltaT = 0.000185778
Time = 0.00172365s

PIMPLE: Iteration 1
diagonal:  Solving for rho, Initial residual = 0, Final residual = 0, No Iterations 0
diagonal:  Solving for Ux, Initial residual = 0, Final residual = 0, No Iterations 0
diagonal:  Solving for e, Initial residual = 0, Final residual = 0, No Iterations 0
PIMPLE: Iteration 2
diagonal:  Solving for rho, Initial residual = 0, Final residual = 0, No Iterations 0
diagonal:  Solving for Ux, Initial residual = 0, Final residual = 0, No Iterations 0
diagonal:  Solving for e, Initial residual = 0, Final residual = 0, No Iterations 0
ExecutionTime = 0.129945 s  ClockTime = 0 s

Courant Number mean: 0.104275 max: 0.199014
deltaT = 0.000186483
Time = 0.00191013s

PIMPLE: Iteration 1
diagonal:  Solving for rho, Initial residual = 0, Final residual = 0, No Iterations 0
diagonal:  Solving for Ux, Initial residual = 0, Final residual = 0, No Iterations 0
diagonal:  Solving for e, Initial residual = 0, Final residual = 0, No Iterations 0
PIMPLE: Iteration 2
diagonal:  Solving for rho, Initial residual = 0, Final residual = 0, No Iterations 0
diagonal:  Solving for Ux, Initial residual = 0, Final residual = 0, No Iterations 0
diagonal:  Solving for e, Initial residual = 0, Final residual = 0, No Iterations 0
ExecutionTime = 0.131166 s  ClockTime = 0 s

Courant Number mean: 0.104707 max: 0.199128
deltaT = 0.000187194
Time = 0.00209733s

PIMPLE: Iteration 1
diagonal:  Solving for rho, Initial residual = 0, Final residual = 0, No Iterations 0
diagonal:  Solving for Ux, Initial residual = 0, Final residual = 0, No Iterations 0
diagonal:  Solving for e, Initial residual = 0, Final residual = 0, No Iterations 0
PIMPLE: Iteration 2
diagonal:  Solving for rho, Initial residual = 0, Final residual = 0, No Iterations 0
diagonal:  Solving for Ux, Initial residual = 0, Final residual = 0, No Iterations 0
diagonal:  Solving for e, Initial residual = 0, Final residual = 0, No Iterations 0
ExecutionTime = 0.132238 s  ClockTime = 0 s

Courant Number mean: 0.105143 max: 0.198274
deltaT = 0.000188637
Time = 0.00228596s

PIMPLE: Iteration 1
diagonal:  Solving for rho, Initial residual = 0, Final residual = 0, No Iterations 0
diagonal:  Solving for Ux, Initial residual = 0, Final residual = 0, No Iterations 0
diagonal:  Solving for e, Initial residual = 0, Final residual = 0, No Iterations 0
PIMPLE: Iteration 2
diagonal:  Solving for rho, Initial residual = 0, Final residual = 0, No Iterations 0
diagonal:  Solving for Ux, Initial residual = 0, Final residual = 0, No Iterations 0
diagonal:  Solving for e, Initial residual = 0, Final residual = 0, No Iterations 0
ExecutionTime = 0.133342 s  ClockTime = 0 s

Courant Number mean: 0.105991 max: 0.19826
deltaT = 0.000190105
Time = 0.00247607s

PIMPLE: Iteration 1
diagonal:  Solving for rho, Initial residual = 0, Final residual = 0, No Iterations 0
diagonal:  Solving for Ux, Initial residual = 0, Final residual = 0, No Iterations 0
diagonal:  Solving for e, Initial residual = 0, Final residual = 0, No Iterations 0
PIMPLE: Iteration 2
diagonal:  Solving for rho, Initial residual = 0, Final residual = 0, No Iterations 0
diagonal:  Solving for Ux, Initial residual = 0, Final residual = 0, No Iterations 0
diagonal:  Solving for e, Initial residual = 0, Final residual = 0, No Iterations 0
ExecutionTime = 0.134404 s  ClockTime = 0 s

Courant Number mean: 0.106855 max: 0.198549
deltaT = 0.000191223
Time = 0.00266729s

PIMPLE: Iteration 1
diagonal:  Solving for rho, Initial residual = 0, Final residual = 0, No Iterations 0
diagonal:  Solving for Ux, Initial residual = 0, Final residual = 0, No Iterations 0
diagonal:  Solving for e, Initial residual = 0, Final residual = 0, No Iterations 0
PIMPLE: Iteration 2
diagonal:  Solving for rho, Initial residual = 0, Final residual = 0, No Iterations 0
diagonal:  Solving for Ux, Initial residual = 0, Final residual = 0, No Iterations 0
diagonal:  Solving for e, Initial residual = 0, Final residual = 0, No Iterations 0
ExecutionTime = 0.135423 s  ClockTime = 0 s

Courant Number mean: 0.107523 max: 0.19947
deltaT = 0.0001916
Time = 0.00285889s

PIMPLE: Iteration 1
diagonal:  Solving for rho, Initial residual = 0, Final residual = 0, No Iterations 0
diagonal:  Solving for Ux, Initial residual = 0, Final residual = 0, No Iterations 0
diagonal:  Solving for e, Initial residual = 0, Final residual = 0, No Iterations 0
PIMPLE: Iteration 2
diagonal:  Solving for rho, Initial residual = 0, Final residual = 0, No Iterations 0
diagonal:  Solving for Ux, Initial residual = 0, Final residual = 0, No Iterations 0
diagonal:  Solving for e, Initial residual = 0, Final residual = 0, No Iterations 0
ExecutionTime = 0.13665 s  ClockTime = 0 s

Courant Number mean: 0.107774 max: 0.198748
deltaT = 0.00019274
Time = 0.00305163s

PIMPLE: Iteration 1
diagonal:  Solving for rho, Initial residual = 0, Final residual = 0, No Iterations 0
diagonal:  Solving for Ux, Initial residual = 0, Final residual = 0, No Iterations 0
diagonal:  Solving for e, Initial residual = 0, Final residual = 0, No Iterations 0
PIMPLE: Iteration 2
diagonal:  Solving for rho, Initial residual = 0, Final residual = 0, No Iterations 0
diagonal:  Solving for Ux, Initial residual = 0, Final residual = 0, No Iterations 0
diagonal:  Solving for e, Initial residual = 0, Final residual = 0, No Iterations 0
ExecutionTime = 0.137843 s  ClockTime = 0 s

Courant Number mean: 0.108455 max: 0.200188
deltaT = 0.000192358
Time = 0.00324399s

PIMPLE: Iteration 1
diagonal:  Solving for rho, Initial residual = 0, Final residual = 0, No Iterations 0
diagonal:  Solving for Ux, Initial residual = 0, Final residual = 0, No Iterations 0
diagonal:  Solving for e, Initial residual = 0, Final residual = 0, No Iterations 0
PIMPLE: Iteration 2
diagonal:  Solving for rho, Initial residual = 0, Final residual = 0, No Iterations 0
diagonal:  Solving for Ux, Initial residual = 0, Final residual = 0, No Iterations 0
diagonal:  Solving for e, Initial residual = 0, Final residual = 0, No Iterations 0
ExecutionTime = 0.138897 s  ClockTime = 0 s

Courant Number mean: 0.10828 max: 0.200156
deltaT = 0.000191976
Time = 0.00343597s

PIMPLE: Iteration 1
diagonal:  Solving for rho, Initial residual = 0, Final residual = 0, No Iterations 0
diagonal:  Solving for Ux, Initial residual = 0, Final residual = 0, No Iterations 0
diagonal:  Solving for e, Initial residual = 0, Final residual = 0, No Iterations 0
PIMPLE: Iteration 2
diagonal:  Solving for rho, Initial residual = 0, Final residual = 0, No Iterations 0
diagonal:  Solving for Ux, Initial residual = 0, Final residual = 0, No Iterations 0
diagonal:  Solving for e, Initial residual = 0, Final residual = 0, No Iterations 0
ExecutionTime = 0.139928 s  ClockTime = 0 s

Courant Number mean: 0.108105 max: 0.201629
deltaT = 0.000190087
Time = 0.00362605s

PIMPLE: Iteration 1
diagonal:  Solving for rho, Initial residual = 0, Final residual = 0, No Iterations 0
diagonal:  Solving for Ux, Initial residual = 0, Final residual = 0, No Iterations 0
diagonal:  Solving for e, Initial residual = 0, Final residual = 0, No Iterations 0
PIMPLE: Iteration 2
diagonal:  Solving for rho, Initial residual = 0, Final residual = 0, No Iterations 0
diagonal:  Solving for Ux, Initial residual = 0, Final residual = 0, No Iterations 0
diagonal:  Solving for e, Initial residual = 0, Final residual = 0, No Iterations 0
ExecutionTime = 0.140962 s  ClockTime = 0 s

Courant Number mean: 0.10708 max: 0.200353
deltaT = 0.000189712
Time = 0.00381577s

PIMPLE: Iteration 1
diagonal:  Solving for rho, Initial residual = 0, Final residual = 0, No Iterations 0
diagonal:  Solving for Ux, Initial residual = 0, Final residual = 0, No Iterations 0
diagonal:  Solving for e, Initial residual = 0, Final residual = 0, No Iterations 0
PIMPLE: Iteration 2
diagonal:  Solving for rho, Initial residual = 0, Final residual = 0, No Iterations 0
diagonal:  Solving for Ux, Initial residual = 0, Final residual = 0, No Iterations 0
diagonal:  Solving for e, Initial residual = 0, Final residual = 0, No Iterations 0
ExecutionTime = 0.14201 s  ClockTime = 0 s

Courant Number mean: 0.106908 max: 0.200043
deltaT = 0.000189339
Time = 0.00400511s

PIMPLE: Iteration 1
diagonal:  Solving for rho, Initial residual = 0, Final residual = 0, No Iterations 0
diagonal:  Solving for Ux, Initial residual = 0, Final residual = 0, No Iterations 0
diagonal:  Solving for e, Initial residual = 0, Final residual = 0, No Iterations 0
PIMPLE: Iteration 2
diagonal:  Solving for rho, Initial residual = 0, Final residual = 0, No Iterations 0
diagonal:  Solving for Ux, Initial residual = 0, Final residual = 0, No Iterations 0
diagonal:  Solving for e, Initial residual = 0, Final residual = 0, No Iterations 0
ExecutionTime = 0.143003 s  ClockTime = 0 s

Courant Number mean: 0.106736 max: 0.199838
deltaT = 0.000189339
Time = 0.00419444s

PIMPLE: Iteration 1
diagonal:  Solving for rho, Initial residual = 0, Final residual = 0, No Iterations 0
diagonal:  Solving for Ux, Initial residual = 0, Final residual = 0, No Iterations 0
diagonal:  Solving for e, Initial residual = 0, Final residual = 0, No Iterations 0
PIMPLE: Iteration 2
diagonal:  Solving for rho, Initial residual = 0, Final residual = 0, No Iterations 0
diagonal:  Solving for Ux, Initial residual = 0, Final residual = 0, No Iterations 0
diagonal:  Solving for e, Initial residual = 0, Final residual = 0, No Iterations 0
ExecutionTime = 0.144015 s  ClockTime = 0 s

Courant Number mean: 0.106775 max: 0.201214
deltaT = 0.000187854
Time = 0.0043823s

PIMPLE: Iteration 1
diagonal:  Solving for rho, Initial residual = 0, Final residual = 0, No Iterations 0
diagonal:  Solving for Ux, Initial residual = 0, Final residual = 0, No Iterations 0
diagonal:  Solving for e, Initial residual = 0, Final residual = 0, No Iterations 0
PIMPLE: Iteration 2
diagonal:  Solving for rho, Initial residual = 0, Final residual = 0, No Iterations 0
diagonal:  Solving for Ux, Initial residual = 0, Final residual = 0, No Iterations 0
diagonal:  Solving for e, Initial residual = 0, Final residual = 0, No Iterations 0
ExecutionTime = 0.145002 s  ClockTime = 0 s

Courant Number mean: 0.105976 max: 0.200068
deltaT = 0.000187486
Time = 0.00456978s

PIMPLE: Iteration 1
diagonal:  Solving for rho, Initial residual = 0, Final residual = 0, No Iterations 0
diagonal:  Solving for Ux, Initial residual = 0, Final residual = 0, No Iterations 0
diagonal:  Solving for e, Initial residual = 0, Final residual = 0, No Iterations 0
PIMPLE: Iteration 2
diagonal:  Solving for rho, Initial residual = 0, Final residual = 0, No Iterations 0
diagonal:  Solving for Ux, Initial residual = 0, Final residual = 0, No Iterations 0
diagonal:  Solving for e, Initial residual = 0, Final residual = 0, No Iterations 0
ExecutionTime = 0.146024 s  ClockTime = 0 s

Courant Number mean: 0.105806 max: 0.199664
deltaT = 0.000187486
Time = 0.00475727s

PIMPLE: Iteration 1
diagonal:  Solving for rho, Initial residual = 0, Final residual = 0, No Iterations 0
diagonal:  Solving for Ux, Initial residual = 0, Final residual = 0, No Iterations 0
diagonal:  Solving for e, Initial residual = 0, Final residual = 0, No Iterations 0
PIMPLE: Iteration 2
diagonal:  Solving for rho, Initial residual = 0, Final residual = 0, No Iterations 0
diagonal:  Solving for Ux, Initial residual = 0, Final residual = 0, No Iterations 0
diagonal:  Solving for e, Initial residual = 0, Final residual = 0, No Iterations 0
ExecutionTime = 0.147085 s  ClockTime = 0 s

Courant Number mean: 0.105844 max: 0.19992
deltaT = 0.000187486
Time = 0.00494476s

PIMPLE: Iteration 1
diagonal:  Solving for rho, Initial residual = 0, Final residual = 0, No Iterations 0
diagonal:  Solving for Ux, Initial residual = 0, Final residual = 0, No Iterations 0
diagonal:  Solving for e, Initial residual = 0, Final residual = 0, No Iterations 0
PIMPLE: Iteration 2
diagonal:  Solving for rho, Initial residual = 0, Final residual = 0, No Iterations 0
diagonal:  Solving for Ux, Initial residual = 0, Final residual = 0, No Iterations 0
diagonal:  Solving for e, Initial residual = 0, Final residual = 0, No Iterations 0
ExecutionTime = 0.148217 s  ClockTime = 0 s

Courant Number mean: 0.105883 max: 0.200966
deltaT = 0.000186383
Time = 0.00513114s

PIMPLE: Iteration 1
diagonal:  Solving for rho, Initial residual = 0, Final residual = 0, No Iterations 0
diagonal:  Solving for Ux, Initial residual = 0, Final residual = 0, No Iterations 0
diagonal:  Solving for e, Initial residual = 0, Final residual = 0, No Iterations 0
PIMPLE: Iteration 2
diagonal:  Solving for rho, Initial residual = 0, Final residual = 0, No Iterations 0
diagonal:  Solving for Ux, Initial residual = 0, Final residual = 0, No Iterations 0
diagonal:  Solving for e, Initial residual = 0, Final residual = 0, No Iterations 0
ExecutionTime = 0.149326 s  ClockTime = 0 s

Courant Number mean: 0.105298 max: 0.200077
deltaT = 0.000186017
Time = 0.00531716s

PIMPLE: Iteration 1
diagonal:  Solving for rho, Initial residual = 0, Final residual = 0, No Iterations 0
diagonal:  Solving for Ux, Initial residual = 0, Final residual = 0, No Iterations 0
diagonal:  Solving for e, Initial residual = 0, Final residual = 0, No Iterations 0
PIMPLE: Iteration 2
diagonal:  Solving for rho, Initial residual = 0, Final residual = 0, No Iterations 0
diagonal:  Solving for Ux, Initial residual = 0, Final residual = 0, No Iterations 0
diagonal:  Solving for e, Initial residual = 0, Final residual = 0, No Iterations 0
ExecutionTime = 0.150402 s  ClockTime = 0 s

Courant Number mean: 0.105129 max: 0.1996
deltaT = 0.000186384
Time = 0.00550354s

PIMPLE: Iteration 1
diagonal:  Solving for rho, Initial residual = 0, Final residual = 0, No Iterations 0
diagonal:  Solving for Ux, Initial residual = 0, Final residual = 0, No Iterations 0
diagonal:  Solving for e, Initial residual = 0, Final residual = 0, No Iterations 0
PIMPLE: Iteration 2
diagonal:  Solving for rho, Initial residual = 0, Final residual = 0, No Iterations 0
diagonal:  Solving for Ux, Initial residual = 0, Final residual = 0, No Iterations 0
diagonal:  Solving for e, Initial residual = 0, Final residual = 0, No Iterations 0
ExecutionTime = 0.151421 s  ClockTime = 0 s

Courant Number mean: 0.105375 max: 0.200261
deltaT = 0.000186017
Time = 0.00568956s

PIMPLE: Iteration 1
diagonal:  Solving for rho, Initial residual = 0, Final residual = 0, No Iterations 0
diagonal:  Solving for Ux, Initial residual = 0, Final residual = 0, No Iterations 0
diagonal:  Solving for e, Initial residual = 0, Final residual = 0, No Iterations 0
PIMPLE: Iteration 2
diagonal:  Solving for rho, Initial residual = 0, Final residual = 0, No Iterations 0
diagonal:  Solving for Ux, Initial residual = 0, Final residual = 0, No Iterations 0
diagonal:  Solving for e, Initial residual = 0, Final residual = 0, No Iterations 0
ExecutionTime = 0.152592 s  ClockTime = 0 s

Courant Number mean: 0.105207 max: 0.200657
deltaT = 0.000185286
Time = 0.00587484s

PIMPLE: Iteration 1
diagonal:  Solving for rho, Initial residual = 0, Final residual = 0, No Iterations 0
diagonal:  Solving for Ux, Initial residual = 0, Final residual = 0, No Iterations 0
diagonal:  Solving for e, Initial residual = 0, Final residual = 0, No Iterations 0
PIMPLE: Iteration 2
diagonal:  Solving for rho, Initial residual = 0, Final residual = 0, No Iterations 0
diagonal:  Solving for Ux, Initial residual = 0, Final residual = 0, No Iterations 0
diagonal:  Solving for e, Initial residual = 0, Final residual = 0, No Iterations 0
ExecutionTime = 0.153681 s  ClockTime = 0 s

Courant Number mean: 0.104831 max: 0.200073
deltaT = 0.000184922
Time = 0.00605976s

PIMPLE: Iteration 1
diagonal:  Solving for rho, Initial residual = 0, Final residual = 0, No Iterations 0
diagonal:  Solving for Ux, Initial residual = 0, Final residual = 0, No Iterations 0
diagonal:  Solving for e, Initial residual = 0, Final residual = 0, No Iterations 0
PIMPLE: Iteration 2
diagonal:  Solving for rho, Initial residual = 0, Final residual = 0, No Iterations 0
diagonal:  Solving for Ux, Initial residual = 0, Final residual = 0, No Iterations 0
diagonal:  Solving for e, Initial residual = 0, Final residual = 0, No Iterations 0
ExecutionTime = 0.154866 s  ClockTime = 0 s

Courant Number mean: 0.104663 max: 0.199563
deltaT = 0.000185286
Time = 0.00624505s

PIMPLE: Iteration 1
diagonal:  Solving for rho, Initial residual = 0, Final residual = 0, No Iterations 0
diagonal:  Solving for Ux, Initial residual = 0, Final residual = 0, No Iterations 0
diagonal:  Solving for e, Initial residual = 0, Final residual = 0, No Iterations 0
PIMPLE: Iteration 2
diagonal:  Solving for rho, Initial residual = 0, Final residual = 0, No Iterations 0
diagonal:  Solving for Ux, Initial residual = 0, Final residual = 0, No Iterations 0
diagonal:  Solving for e, Initial residual = 0, Final residual = 0, No Iterations 0
ExecutionTime = 0.155884 s  ClockTime = 0 s

Courant Number mean: 0.104908 max: 0.200186
deltaT = 0.000184921
Time = 0.00642997s

PIMPLE: Iteration 1
diagonal:  Solving for rho, Initial residual = 0, Final residual = 0, No Iterations 0
diagonal:  Solving for Ux, Initial residual = 0, Final residual = 0, No Iterations 0
diagonal:  Solving for e, Initial residual = 0, Final residual = 0, No Iterations 0
PIMPLE: Iteration 2
diagonal:  Solving for rho, Initial residual = 0, Final residual = 0, No Iterations 0
diagonal:  Solving for Ux, Initial residual = 0, Final residual = 0, No Iterations 0
diagonal:  Solving for e, Initial residual = 0, Final residual = 0, No Iterations 0
ExecutionTime = 0.15695 s  ClockTime = 0 s

Courant Number mean: 0.104739 max: 0.200398
deltaT = 0.000184556
Time = 0.00661453s

PIMPLE: Iteration 1
diagonal:  Solving for rho, Initial residual = 0, Final residual = 0, No Iterations 0
diagonal:  Solving for Ux, Initial residual = 0, Final residual = 0, No Iterations 0
diagonal:  Solving for e, Initial residual = 0, Final residual = 0, No Iterations 0
PIMPLE: Iteration 2
diagonal:  Solving for rho, Initial residual = 0, Final residual = 0, No Iterations 0
diagonal:  Solving for Ux, Initial residual = 0, Final residual = 0, No Iterations 0
diagonal:  Solving for e, Initial residual = 0, Final residual = 0, No Iterations 0
ExecutionTime = 0.158025 s  ClockTime = 0 s

Courant Number mean: 0.10457 max: 0.200174
deltaT = 0.000184192
Time = 0.00679872s

PIMPLE: Iteration 1
diagonal:  Solving for rho, Initial residual = 0, Final residual = 0, No Iterations 0
diagonal:  Solving for Ux, Initial residual = 0, Final residual = 0, No Iterations 0
diagonal:  Solving for e, Initial residual = 0, Final residual = 0, No Iterations 0
PIMPLE: Iteration 2
diagonal:  Solving for rho, Initial residual = 0, Final residual = 0, No Iterations 0
diagonal:  Solving for Ux, Initial residual = 0, Final residual = 0, No Iterations 0
diagonal:  Solving for e, Initial residual = 0, Final residual = 0, No Iterations 0
ExecutionTime = 0.159019 s  ClockTime = 0 s

Courant Number mean: 0.104401 max: 0.199658
deltaT = 0.000184192
Time = 0.00698291s

PIMPLE: Iteration 1
diagonal:  Solving for rho, Initial residual = 0, Final residual = 0, No Iterations 0
diagonal:  Solving for Ux, Initial residual = 0, Final residual = 0, No Iterations 0
diagonal:  Solving for e, Initial residual = 0, Final residual = 0, No Iterations 0
PIMPLE: Iteration 2
diagonal:  Solving for rho, Initial residual = 0, Final residual = 0, No Iterations 0
diagonal:  Solving for Ux, Initial residual = 0, Final residual = 0, No Iterations 0
diagonal:  Solving for e, Initial residual = 0, Final residual = 0, No Iterations 0
ExecutionTime = 0.16004 s  ClockTime = 0 s

Courant Number mean: 0.104439 max: 0.199803
deltaT = 0.000184192
Time = 0.0071671s

PIMPLE: Iteration 1
diagonal:  Solving for rho, Initial residual = 0, Final residual = 0, No Iterations 0
diagonal:  Solving for Ux, Initial residual = 0, Final residual = 0, No Iterations 0
diagonal:  Solving for e, Initial residual = 0, Final residual = 0, No Iterations 0
PIMPLE: Iteration 2
diagonal:  Solving for rho, Initial residual = 0, Final residual = 0, No Iterations 0
diagonal:  Solving for Ux, Initial residual = 0, Final residual = 0, No Iterations 0
diagonal:  Solving for e, Initial residual = 0, Final residual = 0, No Iterations 0
ExecutionTime = 0.161049 s  ClockTime = 0 s

Courant Number mean: 0.104477 max: 0.200283
deltaT = 0.000183828
Time = 0.00735093s

PIMPLE: Iteration 1
diagonal:  Solving for rho, Initial residual = 0, Final residual = 0, No Iterations 0
diagonal:  Solving for Ux, Initial residual = 0, Final residual = 0, No Iterations 0
diagonal:  Solving for e, Initial residual = 0, Final residual = 0, No Iterations 0
PIMPLE: Iteration 2
diagonal:  Solving for rho, Initial residual = 0, Final residual = 0, No Iterations 0
diagonal:  Solving for Ux, Initial residual = 0, Final residual = 0, No Iterations 0
diagonal:  Solving for e, Initial residual = 0, Final residual = 0, No Iterations 0
ExecutionTime = 0.162082 s  ClockTime = 0 s

Courant Number mean: 0.104307 max: 0.200045
deltaT = 0.000183464
Time = 0.0075344s

PIMPLE: Iteration 1
diagonal:  Solving for rho, Initial residual = 0, Final residual = 0, No Iterations 0
diagonal:  Solving for Ux, Initial residual = 0, Final residual = 0, No Iterations 0
diagonal:  Solving for e, Initial residual = 0, Final residual = 0, No Iterations 0
PIMPLE: Iteration 2
diagonal:  Solving for rho, Initial residual = 0, Final residual = 0, No Iterations 0
diagonal:  Solving for Ux, Initial residual = 0, Final residual = 0, No Iterations 0
diagonal:  Solving for e, Initial residual = 0, Final residual = 0, No Iterations 0
ExecutionTime = 0.163094 s  ClockTime = 0 s

Courant Number mean: 0.104138 max: 0.199543
deltaT = 0.000183828
Time = 0.00771822s

PIMPLE: Iteration 1
diagonal:  Solving for rho, Initial residual = 0, Final residual = 0, No Iterations 0
diagonal:  Solving for Ux, Initial residual = 0, Final residual = 0, No Iterations 0
diagonal:  Solving for e, Initial residual = 0, Final residual = 0, No Iterations 0
PIMPLE: Iteration 2
diagonal:  Solving for rho, Initial residual = 0, Final residual = 0, No Iterations 0
diagonal:  Solving for Ux, Initial residual = 0, Final residual = 0, No Iterations 0
diagonal:  Solving for e, Initial residual = 0, Final residual = 0, No Iterations 0
ExecutionTime = 0.164125 s  ClockTime = 0 s

Courant Number mean: 0.104382 max: 0.199995
deltaT = 0.000183828
Time = 0.00790205s

PIMPLE: Iteration 1
diagonal:  Solving for rho, Initial residual = 0, Final residual = 0, No Iterations 0
diagonal:  Solving for Ux, Initial residual = 0, Final residual = 0, No Iterations 0
diagonal:  Solving for e, Initial residual = 0, Final residual = 0, No Iterations 0
PIMPLE: Iteration 2
diagonal:  Solving for rho, Initial residual = 0, Final residual = 0, No Iterations 0
diagonal:  Solving for Ux, Initial residual = 0, Final residual = 0, No Iterations 0
diagonal:  Solving for e, Initial residual = 0, Final residual = 0, No Iterations 0
ExecutionTime = 0.165265 s  ClockTime = 0 s

Courant Number mean: 0.104419 max: 0.200382
deltaT = 0.000183462
Time = 0.00808551s

PIMPLE: Iteration 1
diagonal:  Solving for rho, Initial residual = 0, Final residual = 0, No Iterations 0
diagonal:  Solving for Ux, Initial residual = 0, Final residual = 0, No Iterations 0
diagonal:  Solving for e, Initial residual = 0, Final residual = 0, No Iterations 0
PIMPLE: Iteration 2
diagonal:  Solving for rho, Initial residual = 0, Final residual = 0, No Iterations 0
diagonal:  Solving for Ux, Initial residual = 0, Final residual = 0, No Iterations 0
diagonal:  Solving for e, Initial residual = 0, Final residual = 0, No Iterations 0
ExecutionTime = 0.166445 s  ClockTime = 0 s

Courant Number mean: 0.104248 max: 0.200145
deltaT = 0.000183097
Time = 0.00826861s

PIMPLE: Iteration 1
diagonal:  Solving for rho, Initial residual = 0, Final residual = 0, No Iterations 0
diagonal:  Solving for Ux, Initial residual = 0, Final residual = 0, No Iterations 0
diagonal:  Solving for e, Initial residual = 0, Final residual = 0, No Iterations 0
PIMPLE: Iteration 2
diagonal:  Solving for rho, Initial residual = 0, Final residual = 0, No Iterations 0
diagonal:  Solving for Ux, Initial residual = 0, Final residual = 0, No Iterations 0
diagonal:  Solving for e, Initial residual = 0, Final residual = 0, No Iterations 0
ExecutionTime = 0.167503 s  ClockTime = 0 s

Courant Number mean: 0.104078 max: 0.199668
deltaT = 0.000183097
Time = 0.00845171s

PIMPLE: Iteration 1
diagonal:  Solving for rho, Initial residual = 0, Final residual = 0, No Iterations 0
diagonal:  Solving for Ux, Initial residual = 0, Final residual = 0, No Iterations 0
diagonal:  Solving for e, Initial residual = 0, Final residual = 0, No Iterations 0
PIMPLE: Iteration 2
diagonal:  Solving for rho, Initial residual = 0, Final residual = 0, No Iterations 0
diagonal:  Solving for Ux, Initial residual = 0, Final residual = 0, No Iterations 0
diagonal:  Solving for e, Initial residual = 0, Final residual = 0, No Iterations 0
ExecutionTime = 0.168605 s  ClockTime = 0 s

Courant Number mean: 0.104115 max: 0.199624
deltaT = 0.000183097
Time = 0.0086348s

PIMPLE: Iteration 1
diagonal:  Solving for rho, Initial residual = 0, Final residual = 0, No Iterations 0
diagonal:  Solving for Ux, Initial residual = 0, Final residual = 0, No Iterations 0
diagonal:  Solving for e, Initial residual = 0, Final residual = 0, No Iterations 0
PIMPLE: Iteration 2
diagonal:  Solving for rho, Initial residual = 0, Final residual = 0, No Iterations 0
diagonal:  Solving for Ux, Initial residual = 0, Final residual = 0, No Iterations 0
diagonal:  Solving for e, Initial residual = 0, Final residual = 0, No Iterations 0
ExecutionTime = 0.16985 s  ClockTime = 0 s

Courant Number mean: 0.104151 max: 0.199938
deltaT = 0.000183097
Time = 0.0088179s

PIMPLE: Iteration 1
diagonal:  Solving for rho, Initial residual = 0, Final residual = 0, No Iterations 0
diagonal:  Solving for Ux, Initial residual = 0, Final residual = 0, No Iterations 0
diagonal:  Solving for e, Initial residual = 0, Final residual = 0, No Iterations 0
PIMPLE: Iteration 2
diagonal:  Solving for rho, Initial residual = 0, Final residual = 0, No Iterations 0
diagonal:  Solving for Ux, Initial residual = 0, Final residual = 0, No Iterations 0
diagonal:  Solving for e, Initial residual = 0, Final residual = 0, No Iterations 0
ExecutionTime = 0.170929 s  ClockTime = 0 s

Courant Number mean: 0.104188 max: 0.200099
deltaT = 0.00018273
Time = 0.00900063s

PIMPLE: Iteration 1
diagonal:  Solving for rho, Initial residual = 0, Final residual = 0, No Iterations 0
diagonal:  Solving for Ux, Initial residual = 0, Final residual = 0, No Iterations 0
diagonal:  Solving for e, Initial residual = 0, Final residual = 0, No Iterations 0
PIMPLE: Iteration 2
diagonal:  Solving for rho, Initial residual = 0, Final residual = 0, No Iterations 0
diagonal:  Solving for Ux, Initial residual = 0, Final residual = 0, No Iterations 0
diagonal:  Solving for e, Initial residual = 0, Final residual = 0, No Iterations 0
ExecutionTime = 0.171963 s  ClockTime = 0 s

Courant Number mean: 0.104016 max: 0.199655
deltaT = 0.00018273
Time = 0.00918336s

PIMPLE: Iteration 1
diagonal:  Solving for rho, Initial residual = 0, Final residual = 0, No Iterations 0
diagonal:  Solving for Ux, Initial residual = 0, Final residual = 0, No Iterations 0
diagonal:  Solving for e, Initial residual = 0, Final residual = 0, No Iterations 0
PIMPLE: Iteration 2
diagonal:  Solving for rho, Initial residual = 0, Final residual = 0, No Iterations 0
diagonal:  Solving for Ux, Initial residual = 0, Final residual = 0, No Iterations 0
diagonal:  Solving for e, Initial residual = 0, Final residual = 0, No Iterations 0
ExecutionTime = 0.172979 s  ClockTime = 0 s

Courant Number mean: 0.104053 max: 0.199532
deltaT = 0.000183098
Time = 0.00936646s

PIMPLE: Iteration 1
diagonal:  Solving for rho, Initial residual = 0, Final residual = 0, No Iterations 0
diagonal:  Solving for Ux, Initial residual = 0, Final residual = 0, No Iterations 0
diagonal:  Solving for e, Initial residual = 0, Final residual = 0, No Iterations 0
PIMPLE: Iteration 2
diagonal:  Solving for rho, Initial residual = 0, Final residual = 0, No Iterations 0
diagonal:  Solving for Ux, Initial residual = 0, Final residual = 0, No Iterations 0
diagonal:  Solving for e, Initial residual = 0, Final residual = 0, No Iterations 0
ExecutionTime = 0.174058 s  ClockTime = 0 s

Courant Number mean: 0.1043 max: 0.20019
deltaT = 0.000182729
Time = 0.00954919s

PIMPLE: Iteration 1
diagonal:  Solving for rho, Initial residual = 0, Final residual = 0, No Iterations 0
diagonal:  Solving for Ux, Initial residual = 0, Final residual = 0, No Iterations 0
diagonal:  Solving for e, Initial residual = 0, Final residual = 0, No Iterations 0
PIMPLE: Iteration 2
diagonal:  Solving for rho, Initial residual = 0, Final residual = 0, No Iterations 0
diagonal:  Solving for Ux, Initial residual = 0, Final residual = 0, No Iterations 0
diagonal:  Solving for e, Initial residual = 0, Final residual = 0, No Iterations 0
ExecutionTime = 0.175068 s  ClockTime = 0 s

Courant Number mean: 0.104126 max: 0.199927
deltaT = 0.000182729
Time = 0.00973192s

PIMPLE: Iteration 1
diagonal:  Solving for rho, Initial residual = 0, Final residual = 0, No Iterations 0
diagonal:  Solving for Ux, Initial residual = 0, Final residual = 0, No Iterations 0
diagonal:  Solving for e, Initial residual = 0, Final residual = 0, No Iterations 0
PIMPLE: Iteration 2
diagonal:  Solving for rho, Initial residual = 0, Final residual = 0, No Iterations 0
diagonal:  Solving for Ux, Initial residual = 0, Final residual = 0, No Iterations 0
diagonal:  Solving for e, Initial residual = 0, Final residual = 0, No Iterations 0
ExecutionTime = 0.176121 s  ClockTime = 0 s

Courant Number mean: 0.104163 max: 0.199925
deltaT = 0.000182729
Time = 0.00991464s

PIMPLE: Iteration 1
diagonal:  Solving for rho, Initial residual = 0, Final residual = 0, No Iterations 0
diagonal:  Solving for Ux, Initial residual = 0, Final residual = 0, No Iterations 0
diagonal:  Solving for e, Initial residual = 0, Final residual = 0, No Iterations 0
PIMPLE: Iteration 2
diagonal:  Solving for rho, Initial residual = 0, Final residual = 0, No Iterations 0
diagonal:  Solving for Ux, Initial residual = 0, Final residual = 0, No Iterations 0
diagonal:  Solving for e, Initial residual = 0, Final residual = 0, No Iterations 0
ExecutionTime = 0.177155 s  ClockTime = 0 s

Courant Number mean: 0.104199 max: 0.199799
deltaT = 0.000182729
Time = 0.0100974s

PIMPLE: Iteration 1
diagonal:  Solving for rho, Initial residual = 0, Final residual = 0, No Iterations 0
diagonal:  Solving for Ux, Initial residual = 0, Final residual = 0, No Iterations 0
diagonal:  Solving for e, Initial residual = 0, Final residual = 0, No Iterations 0
PIMPLE: Iteration 2
diagonal:  Solving for rho, Initial residual = 0, Final residual = 0, No Iterations 0
diagonal:  Solving for Ux, Initial residual = 0, Final residual = 0, No Iterations 0
diagonal:  Solving for e, Initial residual = 0, Final residual = 0, No Iterations 0
ExecutionTime = 0.178219 s  ClockTime = 0 s

Courant Number mean: 0.104236 max: 0.199956
deltaT = 0.000182729
Time = 0.0102801s

PIMPLE: Iteration 1
diagonal:  Solving for rho, Initial residual = 0, Final residual = 0, No Iterations 0
diagonal:  Solving for Ux, Initial residual = 0, Final residual = 0, No Iterations 0
diagonal:  Solving for e, Initial residual = 0, Final residual = 0, No Iterations 0
PIMPLE: Iteration 2
diagonal:  Solving for rho, Initial residual = 0, Final residual = 0, No Iterations 0
diagonal:  Solving for Ux, Initial residual = 0, Final residual = 0, No Iterations 0
diagonal:  Solving for e, Initial residual = 0, Final residual = 0, No Iterations 0
ExecutionTime = 0.17923 s  ClockTime = 0 s

Courant Number mean: 0.104273 max: 0.200079
deltaT = 0.000182358
Time = 0.0104625s

PIMPLE: Iteration 1
diagonal:  Solving for rho, Initial residual = 0, Final residual = 0, No Iterations 0
diagonal:  Solving for Ux, Initial residual = 0, Final residual = 0, No Iterations 0
diagonal:  Solving for e, Initial residual = 0, Final residual = 0, No Iterations 0
PIMPLE: Iteration 2
diagonal:  Solving for rho, Initial residual = 0, Final residual = 0, No Iterations 0
diagonal:  Solving for Ux, Initial residual = 0, Final residual = 0, No Iterations 0
diagonal:  Solving for e, Initial residual = 0, Final residual = 0, No Iterations 0
ExecutionTime = 0.180241 s  ClockTime = 0 s

Courant Number mean: 0.104097 max: 0.199703
deltaT = 0.000182358
Time = 0.0106448s

PIMPLE: Iteration 1
diagonal:  Solving for rho, Initial residual = 0, Final residual = 0, No Iterations 0
diagonal:  Solving for Ux, Initial residual = 0, Final residual = 0, No Iterations 0
diagonal:  Solving for e, Initial residual = 0, Final residual = 0, No Iterations 0
PIMPLE: Iteration 2
diagonal:  Solving for rho, Initial residual = 0, Final residual = 0, No Iterations 0
diagonal:  Solving for Ux, Initial residual = 0, Final residual = 0, No Iterations 0
diagonal:  Solving for e, Initial residual = 0, Final residual = 0, No Iterations 0
ExecutionTime = 0.181295 s  ClockTime = 0 s

Courant Number mean: 0.104134 max: 0.199616
deltaT = 0.000182358
Time = 0.0108272s

PIMPLE: Iteration 1
diagonal:  Solving for rho, Initial residual = 0, Final residual = 0, No Iterations 0
diagonal:  Solving for Ux, Initial residual = 0, Final residual = 0, No Iterations 0
diagonal:  Solving for e, Initial residual = 0, Final residual = 0, No Iterations 0
PIMPLE: Iteration 2
diagonal:  Solving for rho, Initial residual = 0, Final residual = 0, No Iterations 0
diagonal:  Solving for Ux, Initial residual = 0, Final residual = 0, No Iterations 0
diagonal:  Solving for e, Initial residual = 0, Final residual = 0, No Iterations 0
ExecutionTime = 0.182362 s  ClockTime = 0 s

Courant Number mean: 0.10417 max: 0.199666
deltaT = 0.000182358
Time = 0.0110095s

PIMPLE: Iteration 1
diagonal:  Solving for rho, Initial residual = 0, Final residual = 0, No Iterations 0
diagonal:  Solving for Ux, Initial residual = 0, Final residual = 0, No Iterations 0
diagonal:  Solving for e, Initial residual = 0, Final residual = 0, No Iterations 0
PIMPLE: Iteration 2
diagonal:  Solving for rho, Initial residual = 0, Final residual = 0, No Iterations 0
diagonal:  Solving for Ux, Initial residual = 0, Final residual = 0, No Iterations 0
diagonal:  Solving for e, Initial residual = 0, Final residual = 0, No Iterations 0
ExecutionTime = 0.183776 s  ClockTime = 0 s

Courant Number mean: 0.104207 max: 0.199768
deltaT = 0.000182358
Time = 0.0111919s

PIMPLE: Iteration 1
diagonal:  Solving for rho, Initial residual = 0, Final residual = 0, No Iterations 0
diagonal:  Solving for Ux, Initial residual = 0, Final residual = 0, No Iterations 0
diagonal:  Solving for e, Initial residual = 0, Final residual = 0, No Iterations 0
PIMPLE: Iteration 2
diagonal:  Solving for rho, Initial residual = 0, Final residual = 0, No Iterations 0
diagonal:  Solving for Ux, Initial residual = 0, Final residual = 0, No Iterations 0
diagonal:  Solving for e, Initial residual = 0, Final residual = 0, No Iterations 0
ExecutionTime = 0.185091 s  ClockTime = 0 s

Courant Number mean: 0.104243 max: 0.199818
deltaT = 0.000182358
Time = 0.0113742s

PIMPLE: Iteration 1
diagonal:  Solving for rho, Initial residual = 0, Final residual = 0, No Iterations 0
diagonal:  Solving for Ux, Initial residual = 0, Final residual = 0, No Iterations 0
diagonal:  Solving for e, Initial residual = 0, Final residual = 0, No Iterations 0
PIMPLE: Iteration 2
diagonal:  Solving for rho, Initial residual = 0, Final residual = 0, No Iterations 0
diagonal:  Solving for Ux, Initial residual = 0, Final residual = 0, No Iterations 0
diagonal:  Solving for e, Initial residual = 0, Final residual = 0, No Iterations 0
ExecutionTime = 0.186219 s  ClockTime = 0 s

Courant Number mean: 0.10428 max: 0.19977
deltaT = 0.000182358
Time = 0.0115566s

PIMPLE: Iteration 1
diagonal:  Solving for rho, Initial residual = 0, Final residual = 0, No Iterations 0
diagonal:  Solving for Ux, Initial residual = 0, Final residual = 0, No Iterations 0
diagonal:  Solving for e, Initial residual = 0, Final residual = 0, No Iterations 0
PIMPLE: Iteration 2
diagonal:  Solving for rho, Initial residual = 0, Final residual = 0, No Iterations 0
diagonal:  Solving for Ux, Initial residual = 0, Final residual = 0, No Iterations 0
diagonal:  Solving for e, Initial residual = 0, Final residual = 0, No Iterations 0
ExecutionTime = 0.187251 s  ClockTime = 0 s

Courant Number mean: 0.104316 max: 0.199741
deltaT = 0.000182358
Time = 0.011739s

PIMPLE: Iteration 1
diagonal:  Solving for rho, Initial residual = 0, Final residual = 0, No Iterations 0
diagonal:  Solving for Ux, Initial residual = 0, Final residual = 0, No Iterations 0
diagonal:  Solving for e, Initial residual = 0, Final residual = 0, No Iterations 0
PIMPLE: Iteration 2
diagonal:  Solving for rho, Initial residual = 0, Final residual = 0, No Iterations 0
diagonal:  Solving for Ux, Initial residual = 0, Final residual = 0, No Iterations 0
diagonal:  Solving for e, Initial residual = 0, Final residual = 0, No Iterations 0
ExecutionTime = 0.188287 s  ClockTime = 0 s

Courant Number mean: 0.104353 max: 0.199828
deltaT = 0.000182358
Time = 0.0119213s

PIMPLE: Iteration 1
diagonal:  Solving for rho, Initial residual = 0, Final residual = 0, No Iterations 0
diagonal:  Solving for Ux, Initial residual = 0, Final residual = 0, No Iterations 0
diagonal:  Solving for e, Initial residual = 0, Final residual = 0, No Iterations 0
PIMPLE: Iteration 2
diagonal:  Solving for rho, Initial residual = 0, Final residual = 0, No Iterations 0
diagonal:  Solving for Ux, Initial residual = 0, Final residual = 0, No Iterations 0
diagonal:  Solving for e, Initial residual = 0, Final residual = 0, No Iterations 0
ExecutionTime = 0.189334 s  ClockTime = 0 s

Courant Number mean: 0.104389 max: 0.199872
deltaT = 0.000182358
Time = 0.0121037s

PIMPLE: Iteration 1
diagonal:  Solving for rho, Initial residual = 0, Final residual = 0, No Iterations 0
diagonal:  Solving for Ux, Initial residual = 0, Final residual = 0, No Iterations 0
diagonal:  Solving for e, Initial residual = 0, Final residual = 0, No Iterations 0
PIMPLE: Iteration 2
diagonal:  Solving for rho, Initial residual = 0, Final residual = 0, No Iterations 0
diagonal:  Solving for Ux, Initial residual = 0, Final residual = 0, No Iterations 0
diagonal:  Solving for e, Initial residual = 0, Final residual = 0, No Iterations 0
ExecutionTime = 0.190356 s  ClockTime = 0 s

Courant Number mean: 0.104426 max: 0.199862
deltaT = 0.000182358
Time = 0.012286s

PIMPLE: Iteration 1
diagonal:  Solving for rho, Initial residual = 0, Final residual = 0, No Iterations 0
diagonal:  Solving for Ux, Initial residual = 0, Final residual = 0, No Iterations 0
diagonal:  Solving for e, Initial residual = 0, Final residual = 0, No Iterations 0
PIMPLE: Iteration 2
diagonal:  Solving for rho, Initial residual = 0, Final residual = 0, No Iterations 0
diagonal:  Solving for Ux, Initial residual = 0, Final residual = 0, No Iterations 0
diagonal:  Solving for e, Initial residual = 0, Final residual = 0, No Iterations 0
ExecutionTime = 0.191359 s  ClockTime = 0 s

Courant Number mean: 0.104462 max: 0.199787
deltaT = 0.000182358
Time = 0.0124684s

PIMPLE: Iteration 1
diagonal:  Solving for rho, Initial residual = 0, Final residual = 0, No Iterations 0
diagonal:  Solving for Ux, Initial residual = 0, Final residual = 0, No Iterations 0
diagonal:  Solving for e, Initial residual = 0, Final residual = 0, No Iterations 0
PIMPLE: Iteration 2
diagonal:  Solving for rho, Initial residual = 0, Final residual = 0, No Iterations 0
diagonal:  Solving for Ux, Initial residual = 0, Final residual = 0, No Iterations 0
diagonal:  Solving for e, Initial residual = 0, Final residual = 0, No Iterations 0
ExecutionTime = 0.192362 s  ClockTime = 0 s

Courant Number mean: 0.104499 max: 0.199861
deltaT = 0.000182358
Time = 0.0126507s

PIMPLE: Iteration 1
diagonal:  Solving for rho, Initial residual = 0, Final residual = 0, No Iterations 0
diagonal:  Solving for Ux, Initial residual = 0, Final residual = 0, No Iterations 0
diagonal:  Solving for e, Initial residual = 0, Final residual = 0, No Iterations 0
PIMPLE: Iteration 2
diagonal:  Solving for rho, Initial residual = 0, Final residual = 0, No Iterations 0
diagonal:  Solving for Ux, Initial residual = 0, Final residual = 0, No Iterations 0
diagonal:  Solving for e, Initial residual = 0, Final residual = 0, No Iterations 0
ExecutionTime = 0.193366 s  ClockTime = 0 s

Courant Number mean: 0.104535 max: 0.199899
deltaT = 0.000182358
Time = 0.0128331s

PIMPLE: Iteration 1
diagonal:  Solving for rho, Initial residual = 0, Final residual = 0, No Iterations 0
diagonal:  Solving for Ux, Initial residual = 0, Final residual = 0, No Iterations 0
diagonal:  Solving for e, Initial residual = 0, Final residual = 0, No Iterations 0
PIMPLE: Iteration 2
diagonal:  Solving for rho, Initial residual = 0, Final residual = 0, No Iterations 0
diagonal:  Solving for Ux, Initial residual = 0, Final residual = 0, No Iterations 0
diagonal:  Solving for e, Initial residual = 0, Final residual = 0, No Iterations 0
ExecutionTime = 0.194421 s  ClockTime = 0 s

Courant Number mean: 0.104571 max: 0.199909
deltaT = 0.000182358
Time = 0.0130155s

PIMPLE: Iteration 1
diagonal:  Solving for rho, Initial residual = 0, Final residual = 0, No Iterations 0
diagonal:  Solving for Ux, Initial residual = 0, Final residual = 0, No Iterations 0
diagonal:  Solving for e, Initial residual = 0, Final residual = 0, No Iterations 0
PIMPLE: Iteration 2
diagonal:  Solving for rho, Initial residual = 0, Final residual = 0, No Iterations 0
diagonal:  Solving for Ux, Initial residual = 0, Final residual = 0, No Iterations 0
diagonal:  Solving for e, Initial residual = 0, Final residual = 0, No Iterations 0
ExecutionTime = 0.195448 s  ClockTime = 0 s

Courant Number mean: 0.104608 max: 0.199866
deltaT = 0.000182358
Time = 0.0131978s

PIMPLE: Iteration 1
diagonal:  Solving for rho, Initial residual = 0, Final residual = 0, No Iterations 0
diagonal:  Solving for Ux, Initial residual = 0, Final residual = 0, No Iterations 0
diagonal:  Solving for e, Initial residual = 0, Final residual = 0, No Iterations 0
PIMPLE: Iteration 2
diagonal:  Solving for rho, Initial residual = 0, Final residual = 0, No Iterations 0
diagonal:  Solving for Ux, Initial residual = 0, Final residual = 0, No Iterations 0
diagonal:  Solving for e, Initial residual = 0, Final residual = 0, No Iterations 0
ExecutionTime = 0.196456 s  ClockTime = 0 s

Courant Number mean: 0.104644 max: 0.199871
deltaT = 0.000182358
Time = 0.0133802s

PIMPLE: Iteration 1
diagonal:  Solving for rho, Initial residual = 0, Final residual = 0, No Iterations 0
diagonal:  Solving for Ux, Initial residual = 0, Final residual = 0, No Iterations 0
diagonal:  Solving for e, Initial residual = 0, Final residual = 0, No Iterations 0
PIMPLE: Iteration 2
diagonal:  Solving for rho, Initial residual = 0, Final residual = 0, No Iterations 0
diagonal:  Solving for Ux, Initial residual = 0, Final residual = 0, No Iterations 0
diagonal:  Solving for e, Initial residual = 0, Final residual = 0, No Iterations 0
ExecutionTime = 0.197519 s  ClockTime = 0 s

Courant Number mean: 0.104681 max: 0.199907
deltaT = 0.000182358
Time = 0.0135625s

PIMPLE: Iteration 1
diagonal:  Solving for rho, Initial residual = 0, Final residual = 0, No Iterations 0
diagonal:  Solving for Ux, Initial residual = 0, Final residual = 0, No Iterations 0
diagonal:  Solving for e, Initial residual = 0, Final residual = 0, No Iterations 0
PIMPLE: Iteration 2
diagonal:  Solving for rho, Initial residual = 0, Final residual = 0, No Iterations 0
diagonal:  Solving for Ux, Initial residual = 0, Final residual = 0, No Iterations 0
diagonal:  Solving for e, Initial residual = 0, Final residual = 0, No Iterations 0
ExecutionTime = 0.198587 s  ClockTime = 0 s

Courant Number mean: 0.104717 max: 0.199918
deltaT = 0.000182358
Time = 0.0137449s

PIMPLE: Iteration 1
diagonal:  Solving for rho, Initial residual = 0, Final residual = 0, No Iterations 0
diagonal:  Solving for Ux, Initial residual = 0, Final residual = 0, No Iterations 0
diagonal:  Solving for e, Initial residual = 0, Final residual = 0, No Iterations 0
PIMPLE: Iteration 2
diagonal:  Solving for rho, Initial residual = 0, Final residual = 0, No Iterations 0
diagonal:  Solving for Ux, Initial residual = 0, Final residual = 0, No Iterations 0
diagonal:  Solving for e, Initial residual = 0, Final residual = 0, No Iterations 0
ExecutionTime = 0.20003 s  ClockTime = 0 s

Courant Number mean: 0.104754 max: 0.199907
deltaT = 0.000182358
Time = 0.0139273s

PIMPLE: Iteration 1
diagonal:  Solving for rho, Initial residual = 0, Final residual = 0, No Iterations 0
diagonal:  Solving for Ux, Initial residual = 0, Final residual = 0, No Iterations 0
diagonal:  Solving for e, Initial residual = 0, Final residual = 0, No Iterations 0
PIMPLE: Iteration 2
diagonal:  Solving for rho, Initial residual = 0, Final residual = 0, No Iterations 0
diagonal:  Solving for Ux, Initial residual = 0, Final residual = 0, No Iterations 0
diagonal:  Solving for e, Initial residual = 0, Final residual = 0, No Iterations 0
ExecutionTime = 0.201135 s  ClockTime = 0 s

Courant Number mean: 0.10479 max: 0.199867
deltaT = 0.000182358
Time = 0.0141096s

PIMPLE: Iteration 1
diagonal:  Solving for rho, Initial residual = 0, Final residual = 0, No Iterations 0
diagonal:  Solving for Ux, Initial residual = 0, Final residual = 0, No Iterations 0
diagonal:  Solving for e, Initial residual = 0, Final residual = 0, No Iterations 0
PIMPLE: Iteration 2
diagonal:  Solving for rho, Initial residual = 0, Final residual = 0, No Iterations 0
diagonal:  Solving for Ux, Initial residual = 0, Final residual = 0, No Iterations 0
diagonal:  Solving for e, Initial residual = 0, Final residual = 0, No Iterations 0
ExecutionTime = 0.20238 s  ClockTime = 0 s

Courant Number mean: 0.104827 max: 0.199902
deltaT = 0.000182358
Time = 0.014292s

PIMPLE: Iteration 1
diagonal:  Solving for rho, Initial residual = 0, Final residual = 0, No Iterations 0
diagonal:  Solving for Ux, Initial residual = 0, Final residual = 0, No Iterations 0
diagonal:  Solving for e, Initial residual = 0, Final residual = 0, No Iterations 0
PIMPLE: Iteration 2
diagonal:  Solving for rho, Initial residual = 0, Final residual = 0, No Iterations 0
diagonal:  Solving for Ux, Initial residual = 0, Final residual = 0, No Iterations 0
diagonal:  Solving for e, Initial residual = 0, Final residual = 0, No Iterations 0
ExecutionTime = 0.203474 s  ClockTime = 0 s

Courant Number mean: 0.104863 max: 0.199916
deltaT = 0.000182358
Time = 0.0144743s

PIMPLE: Iteration 1
diagonal:  Solving for rho, Initial residual = 0, Final residual = 0, No Iterations 0
diagonal:  Solving for Ux, Initial residual = 0, Final residual = 0, No Iterations 0
diagonal:  Solving for e, Initial residual = 0, Final residual = 0, No Iterations 0
PIMPLE: Iteration 2
diagonal:  Solving for rho, Initial residual = 0, Final residual = 0, No Iterations 0
diagonal:  Solving for Ux, Initial residual = 0, Final residual = 0, No Iterations 0
diagonal:  Solving for e, Initial residual = 0, Final residual = 0, No Iterations 0
ExecutionTime = 0.204508 s  ClockTime = 0 s

Courant Number mean: 0.104899 max: 0.199912
deltaT = 0.000182358
Time = 0.0146567s

PIMPLE: Iteration 1
diagonal:  Solving for rho, Initial residual = 0, Final residual = 0, No Iterations 0
diagonal:  Solving for Ux, Initial residual = 0, Final residual = 0, No Iterations 0
diagonal:  Solving for e, Initial residual = 0, Final residual = 0, No Iterations 0
PIMPLE: Iteration 2
diagonal:  Solving for rho, Initial residual = 0, Final residual = 0, No Iterations 0
diagonal:  Solving for Ux, Initial residual = 0, Final residual = 0, No Iterations 0
diagonal:  Solving for e, Initial residual = 0, Final residual = 0, No Iterations 0
ExecutionTime = 0.205526 s  ClockTime = 0 s

Courant Number mean: 0.104936 max: 0.199889
deltaT = 0.000182358
Time = 0.014839s

PIMPLE: Iteration 1
diagonal:  Solving for rho, Initial residual = 0, Final residual = 0, No Iterations 0
diagonal:  Solving for Ux, Initial residual = 0, Final residual = 0, No Iterations 0
diagonal:  Solving for e, Initial residual = 0, Final residual = 0, No Iterations 0
PIMPLE: Iteration 2
diagonal:  Solving for rho, Initial residual = 0, Final residual = 0, No Iterations 0
diagonal:  Solving for Ux, Initial residual = 0, Final residual = 0, No Iterations 0
diagonal:  Solving for e, Initial residual = 0, Final residual = 0, No Iterations 0
ExecutionTime = 0.20654 s  ClockTime = 0 s

Courant Number mean: 0.104972 max: 0.199885
deltaT = 0.000182358
Time = 0.0150214s

PIMPLE: Iteration 1
diagonal:  Solving for rho, Initial residual = 0, Final residual = 0, No Iterations 0
diagonal:  Solving for Ux, Initial residual = 0, Final residual = 0, No Iterations 0
diagonal:  Solving for e, Initial residual = 0, Final residual = 0, No Iterations 0
PIMPLE: Iteration 2
diagonal:  Solving for rho, Initial residual = 0, Final residual = 0, No Iterations 0
diagonal:  Solving for Ux, Initial residual = 0, Final residual = 0, No Iterations 0
diagonal:  Solving for e, Initial residual = 0, Final residual = 0, No Iterations 0
ExecutionTime = 0.207578 s  ClockTime = 0 s

Courant Number mean: 0.105008 max: 0.199902
deltaT = 0.000182358
Time = 0.0152038s

PIMPLE: Iteration 1
diagonal:  Solving for rho, Initial residual = 0, Final residual = 0, No Iterations 0
diagonal:  Solving for Ux, Initial residual = 0, Final residual = 0, No Iterations 0
diagonal:  Solving for e, Initial residual = 0, Final residual = 0, No Iterations 0
PIMPLE: Iteration 2
diagonal:  Solving for rho, Initial residual = 0, Final residual = 0, No Iterations 0
diagonal:  Solving for Ux, Initial residual = 0, Final residual = 0, No Iterations 0
diagonal:  Solving for e, Initial residual = 0, Final residual = 0, No Iterations 0
ExecutionTime = 0.20859 s  ClockTime = 0 s

Courant Number mean: 0.105045 max: 0.199905
deltaT = 0.000182358
Time = 0.0153861s

PIMPLE: Iteration 1
diagonal:  Solving for rho, Initial residual = 0, Final residual = 0, No Iterations 0
diagonal:  Solving for Ux, Initial residual = 0, Final residual = 0, No Iterations 0
diagonal:  Solving for e, Initial residual = 0, Final residual = 0, No Iterations 0
PIMPLE: Iteration 2
diagonal:  Solving for rho, Initial residual = 0, Final residual = 0, No Iterations 0
diagonal:  Solving for Ux, Initial residual = 0, Final residual = 0, No Iterations 0
diagonal:  Solving for e, Initial residual = 0, Final residual = 0, No Iterations 0
ExecutionTime = 0.209624 s  ClockTime = 0 s

Courant Number mean: 0.105081 max: 0.199894
deltaT = 0.000182358
Time = 0.0155685s

PIMPLE: Iteration 1
diagonal:  Solving for rho, Initial residual = 0, Final residual = 0, No Iterations 0
diagonal:  Solving for Ux, Initial residual = 0, Final residual = 0, No Iterations 0
diagonal:  Solving for e, Initial residual = 0, Final residual = 0, No Iterations 0
PIMPLE: Iteration 2
diagonal:  Solving for rho, Initial residual = 0, Final residual = 0, No Iterations 0
diagonal:  Solving for Ux, Initial residual = 0, Final residual = 0, No Iterations 0
diagonal:  Solving for e, Initial residual = 0, Final residual = 0, No Iterations 0
ExecutionTime = 0.210641 s  ClockTime = 0 s

Courant Number mean: 0.105118 max: 0.199867
deltaT = 0.000182358
Time = 0.0157508s

PIMPLE: Iteration 1
diagonal:  Solving for rho, Initial residual = 0, Final residual = 0, No Iterations 0
diagonal:  Solving for Ux, Initial residual = 0, Final residual = 0, No Iterations 0
diagonal:  Solving for e, Initial residual = 0, Final residual = 0, No Iterations 0
PIMPLE: Iteration 2
diagonal:  Solving for rho, Initial residual = 0, Final residual = 0, No Iterations 0
diagonal:  Solving for Ux, Initial residual = 0, Final residual = 0, No Iterations 0
diagonal:  Solving for e, Initial residual = 0, Final residual = 0, No Iterations 0
ExecutionTime = 0.211666 s  ClockTime = 0 s

Courant Number mean: 0.105154 max: 0.199879
deltaT = 0.000182358
Time = 0.0159332s

PIMPLE: Iteration 1
diagonal:  Solving for rho, Initial residual = 0, Final residual = 0, No Iterations 0
diagonal:  Solving for Ux, Initial residual = 0, Final residual = 0, No Iterations 0
diagonal:  Solving for e, Initial residual = 0, Final residual = 0, No Iterations 0
PIMPLE: Iteration 2
diagonal:  Solving for rho, Initial residual = 0, Final residual = 0, No Iterations 0
diagonal:  Solving for Ux, Initial residual = 0, Final residual = 0, No Iterations 0
diagonal:  Solving for e, Initial residual = 0, Final residual = 0, No Iterations 0
ExecutionTime = 0.212683 s  ClockTime = 0 s

Courant Number mean: 0.105191 max: 0.199887
deltaT = 0.000182358
Time = 0.0161155s

PIMPLE: Iteration 1
diagonal:  Solving for rho, Initial residual = 0, Final residual = 0, No Iterations 0
diagonal:  Solving for Ux, Initial residual = 0, Final residual = 0, No Iterations 0
diagonal:  Solving for e, Initial residual = 0, Final residual = 0, No Iterations 0
PIMPLE: Iteration 2
diagonal:  Solving for rho, Initial residual = 0, Final residual = 0, No Iterations 0
diagonal:  Solving for Ux, Initial residual = 0, Final residual = 0, No Iterations 0
diagonal:  Solving for e, Initial residual = 0, Final residual = 0, No Iterations 0
ExecutionTime = 0.213686 s  ClockTime = 0 s

Courant Number mean: 0.105227 max: 0.199884
deltaT = 0.000182358
Time = 0.0162979s

PIMPLE: Iteration 1
diagonal:  Solving for rho, Initial residual = 0, Final residual = 0, No Iterations 0
diagonal:  Solving for Ux, Initial residual = 0, Final residual = 0, No Iterations 0
diagonal:  Solving for e, Initial residual = 0, Final residual = 0, No Iterations 0
PIMPLE: Iteration 2
diagonal:  Solving for rho, Initial residual = 0, Final residual = 0, No Iterations 0
diagonal:  Solving for Ux, Initial residual = 0, Final residual = 0, No Iterations 0
diagonal:  Solving for e, Initial residual = 0, Final residual = 0, No Iterations 0
ExecutionTime = 0.214686 s  ClockTime = 0 s

Courant Number mean: 0.105264 max: 0.199869
deltaT = 0.000182358
Time = 0.0164803s

PIMPLE: Iteration 1
diagonal:  Solving for rho, Initial residual = 0, Final residual = 0, No Iterations 0
diagonal:  Solving for Ux, Initial residual = 0, Final residual = 0, No Iterations 0
diagonal:  Solving for e, Initial residual = 0, Final residual = 0, No Iterations 0
PIMPLE: Iteration 2
diagonal:  Solving for rho, Initial residual = 0, Final residual = 0, No Iterations 0
diagonal:  Solving for Ux, Initial residual = 0, Final residual = 0, No Iterations 0
diagonal:  Solving for e, Initial residual = 0, Final residual = 0, No Iterations 0
ExecutionTime = 0.21607 s  ClockTime = 0 s

Courant Number mean: 0.1053 max: 0.199852
deltaT = 0.000182358
Time = 0.0166626s

PIMPLE: Iteration 1
diagonal:  Solving for rho, Initial residual = 0, Final residual = 0, No Iterations 0
diagonal:  Solving for Ux, Initial residual = 0, Final residual = 0, No Iterations 0
diagonal:  Solving for e, Initial residual = 0, Final residual = 0, No Iterations 0
PIMPLE: Iteration 2
diagonal:  Solving for rho, Initial residual = 0, Final residual = 0, No Iterations 0
diagonal:  Solving for Ux, Initial residual = 0, Final residual = 0, No Iterations 0
diagonal:  Solving for e, Initial residual = 0, Final residual = 0, No Iterations 0
ExecutionTime = 0.217275 s  ClockTime = 0 s

Courant Number mean: 0.105336 max: 0.199861
deltaT = 0.000182358
Time = 0.016845s

PIMPLE: Iteration 1
diagonal:  Solving for rho, Initial residual = 0, Final residual = 0, No Iterations 0
diagonal:  Solving for Ux, Initial residual = 0, Final residual = 0, No Iterations 0
diagonal:  Solving for e, Initial residual = 0, Final residual = 0, No Iterations 0
PIMPLE: Iteration 2
diagonal:  Solving for rho, Initial residual = 0, Final residual = 0, No Iterations 0
diagonal:  Solving for Ux, Initial residual = 0, Final residual = 0, No Iterations 0
diagonal:  Solving for e, Initial residual = 0, Final residual = 0, No Iterations 0
ExecutionTime = 0.218469 s  ClockTime = 0 s

Courant Number mean: 0.105373 max: 0.199863
deltaT = 0.000182358
Time = 0.0170273s

PIMPLE: Iteration 1
diagonal:  Solving for rho, Initial residual = 0, Final residual = 0, No Iterations 0
diagonal:  Solving for Ux, Initial residual = 0, Final residual = 0, No Iterations 0
diagonal:  Solving for e, Initial residual = 0, Final residual = 0, No Iterations 0
PIMPLE: Iteration 2
diagonal:  Solving for rho, Initial residual = 0, Final residual = 0, No Iterations 0
[...]
PIMPLE: Iteration 2
diagonal:  Solving for rho, Initial residual = 0, Final residual = 0, No Iterations 0
diagonal:  Solving for Ux, Initial residual = 0, Final residual = 0, No Iterations 0
diagonal:  Solving for e, Initial residual = 0, Final residual = 0, No Iterations 0
ExecutionTime = 1.28554 s  ClockTime = 1 s

Courant Number mean: 0.140968 max: 0.199629
deltaT = 0.000182482
Time = 0.194891s

PIMPLE: Iteration 1
diagonal:  Solving for rho, Initial residual = 0, Final residual = 0, No Iterations 0
diagonal:  Solving for Ux, Initial residual = 0, Final residual = 0, No Iterations 0
diagonal:  Solving for e, Initial residual = 0, Final residual = 0, No Iterations 0
PIMPLE: Iteration 2
diagonal:  Solving for rho, Initial residual = 0, Final residual = 0, No Iterations 0
diagonal:  Solving for Ux, Initial residual = 0, Final residual = 0, No Iterations 0
diagonal:  Solving for e, Initial residual = 0, Final residual = 0, No Iterations 0
ExecutionTime = 1.28664 s  ClockTime = 1 s

Courant Number mean: 0.141005 max: 0.199629
deltaT = 0.000182482
Time = 0.195073s

PIMPLE: Iteration 1
diagonal:  Solving for rho, Initial residual = 0, Final residual = 0, No Iterations 0
diagonal:  Solving for Ux, Initial residual = 0, Final residual = 0, No Iterations 0
diagonal:  Solving for e, Initial residual = 0, Final residual = 0, No Iterations 0
PIMPLE: Iteration 2
diagonal:  Solving for rho, Initial residual = 0, Final residual = 0, No Iterations 0
diagonal:  Solving for Ux, Initial residual = 0, Final residual = 0, No Iterations 0
diagonal:  Solving for e, Initial residual = 0, Final residual = 0, No Iterations 0
ExecutionTime = 1.28787 s  ClockTime = 1 s

Courant Number mean: 0.141041 max: 0.199629
deltaT = 0.000182482
Time = 0.195255s

PIMPLE: Iteration 1
diagonal:  Solving for rho, Initial residual = 0, Final residual = 0, No Iterations 0
diagonal:  Solving for Ux, Initial residual = 0, Final residual = 0, No Iterations 0
diagonal:  Solving for e, Initial residual = 0, Final residual = 0, No Iterations 0
PIMPLE: Iteration 2
diagonal:  Solving for rho, Initial residual = 0, Final residual = 0, No Iterations 0
diagonal:  Solving for Ux, Initial residual = 0, Final residual = 0, No Iterations 0
diagonal:  Solving for e, Initial residual = 0, Final residual = 0, No Iterations 0
ExecutionTime = 1.2889 s  ClockTime = 1 s

Courant Number mean: 0.141078 max: 0.199629
deltaT = 0.000182482
Time = 0.195438s

PIMPLE: Iteration 1
diagonal:  Solving for rho, Initial residual = 0, Final residual = 0, No Iterations 0
diagonal:  Solving for Ux, Initial residual = 0, Final residual = 0, No Iterations 0
diagonal:  Solving for e, Initial residual = 0, Final residual = 0, No Iterations 0
PIMPLE: Iteration 2
diagonal:  Solving for rho, Initial residual = 0, Final residual = 0, No Iterations 0
diagonal:  Solving for Ux, Initial residual = 0, Final residual = 0, No Iterations 0
diagonal:  Solving for e, Initial residual = 0, Final residual = 0, No Iterations 0
ExecutionTime = 1.28992 s  ClockTime = 1 s

Courant Number mean: 0.141114 max: 0.199629
deltaT = 0.000182482
Time = 0.19562s

PIMPLE: Iteration 1
diagonal:  Solving for rho, Initial residual = 0, Final residual = 0, No Iterations 0
diagonal:  Solving for Ux, Initial residual = 0, Final residual = 0, No Iterations 0
diagonal:  Solving for e, Initial residual = 0, Final residual = 0, No Iterations 0
PIMPLE: Iteration 2
diagonal:  Solving for rho, Initial residual = 0, Final residual = 0, No Iterations 0
diagonal:  Solving for Ux, Initial residual = 0, Final residual = 0, No Iterations 0
diagonal:  Solving for e, Initial residual = 0, Final residual = 0, No Iterations 0
ExecutionTime = 1.29093 s  ClockTime = 1 s

Courant Number mean: 0.141151 max: 0.199629
deltaT = 0.000182482
Time = 0.195803s

PIMPLE: Iteration 1
diagonal:  Solving for rho, Initial residual = 0, Final residual = 0, No Iterations 0
diagonal:  Solving for Ux, Initial residual = 0, Final residual = 0, No Iterations 0
diagonal:  Solving for e, Initial residual = 0, Final residual = 0, No Iterations 0
PIMPLE: Iteration 2
diagonal:  Solving for rho, Initial residual = 0, Final residual = 0, No Iterations 0
diagonal:  Solving for Ux, Initial residual = 0, Final residual = 0, No Iterations 0
diagonal:  Solving for e, Initial residual = 0, Final residual = 0, No Iterations 0
ExecutionTime = 1.29194 s  ClockTime = 1 s

Courant Number mean: 0.141187 max: 0.199629
deltaT = 0.000182482
Time = 0.195985s

PIMPLE: Iteration 1
diagonal:  Solving for rho, Initial residual = 0, Final residual = 0, No Iterations 0
diagonal:  Solving for Ux, Initial residual = 0, Final residual = 0, No Iterations 0
diagonal:  Solving for e, Initial residual = 0, Final residual = 0, No Iterations 0
PIMPLE: Iteration 2
diagonal:  Solving for rho, Initial residual = 0, Final residual = 0, No Iterations 0
diagonal:  Solving for Ux, Initial residual = 0, Final residual = 0, No Iterations 0
diagonal:  Solving for e, Initial residual = 0, Final residual = 0, No Iterations 0
ExecutionTime = 1.29296 s  ClockTime = 1 s

Courant Number mean: 0.141223 max: 0.199629
deltaT = 0.000182482
Time = 0.196168s

PIMPLE: Iteration 1
diagonal:  Solving for rho, Initial residual = 0, Final residual = 0, No Iterations 0
diagonal:  Solving for Ux, Initial residual = 0, Final residual = 0, No Iterations 0
diagonal:  Solving for e, Initial residual = 0, Final residual = 0, No Iterations 0
PIMPLE: Iteration 2
diagonal:  Solving for rho, Initial residual = 0, Final residual = 0, No Iterations 0
diagonal:  Solving for Ux, Initial residual = 0, Final residual = 0, No Iterations 0
diagonal:  Solving for e, Initial residual = 0, Final residual = 0, No Iterations 0
ExecutionTime = 1.294 s  ClockTime = 1 s

Courant Number mean: 0.14126 max: 0.199628
deltaT = 0.000182482
Time = 0.19635s

PIMPLE: Iteration 1
diagonal:  Solving for rho, Initial residual = 0, Final residual = 0, No Iterations 0
diagonal:  Solving for Ux, Initial residual = 0, Final residual = 0, No Iterations 0
diagonal:  Solving for e, Initial residual = 0, Final residual = 0, No Iterations 0
PIMPLE: Iteration 2
diagonal:  Solving for rho, Initial residual = 0, Final residual = 0, No Iterations 0
diagonal:  Solving for Ux, Initial residual = 0, Final residual = 0, No Iterations 0
diagonal:  Solving for e, Initial residual = 0, Final residual = 0, No Iterations 0
ExecutionTime = 1.29502 s  ClockTime = 1 s

Courant Number mean: 0.141296 max: 0.199628
deltaT = 0.000182482
Time = 0.196533s

PIMPLE: Iteration 1
diagonal:  Solving for rho, Initial residual = 0, Final residual = 0, No Iterations 0
diagonal:  Solving for Ux, Initial residual = 0, Final residual = 0, No Iterations 0
diagonal:  Solving for e, Initial residual = 0, Final residual = 0, No Iterations 0
PIMPLE: Iteration 2
diagonal:  Solving for rho, Initial residual = 0, Final residual = 0, No Iterations 0
diagonal:  Solving for Ux, Initial residual = 0, Final residual = 0, No Iterations 0
diagonal:  Solving for e, Initial residual = 0, Final residual = 0, No Iterations 0
ExecutionTime = 1.29608 s  ClockTime = 1 s

Courant Number mean: 0.141333 max: 0.199628
deltaT = 0.000182482
Time = 0.196715s

PIMPLE: Iteration 1
diagonal:  Solving for rho, Initial residual = 0, Final residual = 0, No Iterations 0
diagonal:  Solving for Ux, Initial residual = 0, Final residual = 0, No Iterations 0
diagonal:  Solving for e, Initial residual = 0, Final residual = 0, No Iterations 0
PIMPLE: Iteration 2
diagonal:  Solving for rho, Initial residual = 0, Final residual = 0, No Iterations 0
diagonal:  Solving for Ux, Initial residual = 0, Final residual = 0, No Iterations 0
diagonal:  Solving for e, Initial residual = 0, Final residual = 0, No Iterations 0
ExecutionTime = 1.29707 s  ClockTime = 1 s

Courant Number mean: 0.141369 max: 0.199628
deltaT = 0.000182482
Time = 0.196898s

PIMPLE: Iteration 1
diagonal:  Solving for rho, Initial residual = 0, Final residual = 0, No Iterations 0
diagonal:  Solving for Ux, Initial residual = 0, Final residual = 0, No Iterations 0
diagonal:  Solving for e, Initial residual = 0, Final residual = 0, No Iterations 0
PIMPLE: Iteration 2
diagonal:  Solving for rho, Initial residual = 0, Final residual = 0, No Iterations 0
diagonal:  Solving for Ux, Initial residual = 0, Final residual = 0, No Iterations 0
diagonal:  Solving for e, Initial residual = 0, Final residual = 0, No Iterations 0
ExecutionTime = 1.29813 s  ClockTime = 1 s

Courant Number mean: 0.141406 max: 0.199628
deltaT = 0.000182482
Time = 0.19708s

PIMPLE: Iteration 1
diagonal:  Solving for rho, Initial residual = 0, Final residual = 0, No Iterations 0
diagonal:  Solving for Ux, Initial residual = 0, Final residual = 0, No Iterations 0
diagonal:  Solving for e, Initial residual = 0, Final residual = 0, No Iterations 0
PIMPLE: Iteration 2
diagonal:  Solving for rho, Initial residual = 0, Final residual = 0, No Iterations 0
diagonal:  Solving for Ux, Initial residual = 0, Final residual = 0, No Iterations 0
diagonal:  Solving for e, Initial residual = 0, Final residual = 0, No Iterations 0
ExecutionTime = 1.29917 s  ClockTime = 1 s

Courant Number mean: 0.141442 max: 0.199628
deltaT = 0.000182482
Time = 0.197263s

PIMPLE: Iteration 1
diagonal:  Solving for rho, Initial residual = 0, Final residual = 0, No Iterations 0
diagonal:  Solving for Ux, Initial residual = 0, Final residual = 0, No Iterations 0
diagonal:  Solving for e, Initial residual = 0, Final residual = 0, No Iterations 0
PIMPLE: Iteration 2
diagonal:  Solving for rho, Initial residual = 0, Final residual = 0, No Iterations 0
diagonal:  Solving for Ux, Initial residual = 0, Final residual = 0, No Iterations 0
diagonal:  Solving for e, Initial residual = 0, Final residual = 0, No Iterations 0
ExecutionTime = 1.30028 s  ClockTime = 1 s

Courant Number mean: 0.141479 max: 0.199628
deltaT = 0.000182482
Time = 0.197445s

PIMPLE: Iteration 1
diagonal:  Solving for rho, Initial residual = 0, Final residual = 0, No Iterations 0
diagonal:  Solving for Ux, Initial residual = 0, Final residual = 0, No Iterations 0
diagonal:  Solving for e, Initial residual = 0, Final residual = 0, No Iterations 0
PIMPLE: Iteration 2
diagonal:  Solving for rho, Initial residual = 0, Final residual = 0, No Iterations 0
diagonal:  Solving for Ux, Initial residual = 0, Final residual = 0, No Iterations 0
diagonal:  Solving for e, Initial residual = 0, Final residual = 0, No Iterations 0
ExecutionTime = 1.30146 s  ClockTime = 1 s

Courant Number mean: 0.141515 max: 0.199628
deltaT = 0.000182482
Time = 0.197628s

PIMPLE: Iteration 1
diagonal:  Solving for rho, Initial residual = 0, Final residual = 0, No Iterations 0
diagonal:  Solving for Ux, Initial residual = 0, Final residual = 0, No Iterations 0
diagonal:  Solving for e, Initial residual = 0, Final residual = 0, No Iterations 0
PIMPLE: Iteration 2
diagonal:  Solving for rho, Initial residual = 0, Final residual = 0, No Iterations 0
diagonal:  Solving for Ux, Initial residual = 0, Final residual = 0, No Iterations 0
diagonal:  Solving for e, Initial residual = 0, Final residual = 0, No Iterations 0
ExecutionTime = 1.30256 s  ClockTime = 1 s

Courant Number mean: 0.141552 max: 0.199628
deltaT = 0.000182482
Time = 0.19781s

PIMPLE: Iteration 1
diagonal:  Solving for rho, Initial residual = 0, Final residual = 0, No Iterations 0
diagonal:  Solving for Ux, Initial residual = 0, Final residual = 0, No Iterations 0
diagonal:  Solving for e, Initial residual = 0, Final residual = 0, No Iterations 0
PIMPLE: Iteration 2
diagonal:  Solving for rho, Initial residual = 0, Final residual = 0, No Iterations 0
diagonal:  Solving for Ux, Initial residual = 0, Final residual = 0, No Iterations 0
diagonal:  Solving for e, Initial residual = 0, Final residual = 0, No Iterations 0
ExecutionTime = 1.3036 s  ClockTime = 1 s

Courant Number mean: 0.141588 max: 0.199628
deltaT = 0.000182482
Time = 0.197993s

PIMPLE: Iteration 1
diagonal:  Solving for rho, Initial residual = 0, Final residual = 0, No Iterations 0
diagonal:  Solving for Ux, Initial residual = 0, Final residual = 0, No Iterations 0
diagonal:  Solving for e, Initial residual = 0, Final residual = 0, No Iterations 0
PIMPLE: Iteration 2
diagonal:  Solving for rho, Initial residual = 0, Final residual = 0, No Iterations 0
diagonal:  Solving for Ux, Initial residual = 0, Final residual = 0, No Iterations 0
diagonal:  Solving for e, Initial residual = 0, Final residual = 0, No Iterations 0
ExecutionTime = 1.30488 s  ClockTime = 1 s

Courant Number mean: 0.141624 max: 0.199628
deltaT = 0.000182482
Time = 0.198175s

PIMPLE: Iteration 1
diagonal:  Solving for rho, Initial residual = 0, Final residual = 0, No Iterations 0
diagonal:  Solving for Ux, Initial residual = 0, Final residual = 0, No Iterations 0
diagonal:  Solving for e, Initial residual = 0, Final residual = 0, No Iterations 0
PIMPLE: Iteration 2
diagonal:  Solving for rho, Initial residual = 0, Final residual = 0, No Iterations 0
diagonal:  Solving for Ux, Initial residual = 0, Final residual = 0, No Iterations 0
diagonal:  Solving for e, Initial residual = 0, Final residual = 0, No Iterations 0
ExecutionTime = 1.30596 s  ClockTime = 1 s

Courant Number mean: 0.141661 max: 0.199628
deltaT = 0.000182482
Time = 0.198358s

PIMPLE: Iteration 1
diagonal:  Solving for rho, Initial residual = 0, Final residual = 0, No Iterations 0
diagonal:  Solving for Ux, Initial residual = 0, Final residual = 0, No Iterations 0
diagonal:  Solving for e, Initial residual = 0, Final residual = 0, No Iterations 0
PIMPLE: Iteration 2
diagonal:  Solving for rho, Initial residual = 0, Final residual = 0, No Iterations 0
diagonal:  Solving for Ux, Initial residual = 0, Final residual = 0, No Iterations 0
diagonal:  Solving for e, Initial residual = 0, Final residual = 0, No Iterations 0
ExecutionTime = 1.30698 s  ClockTime = 1 s

Courant Number mean: 0.141697 max: 0.199628
deltaT = 0.000182482
Time = 0.19854s

PIMPLE: Iteration 1
diagonal:  Solving for rho, Initial residual = 0, Final residual = 0, No Iterations 0
diagonal:  Solving for Ux, Initial residual = 0, Final residual = 0, No Iterations 0
diagonal:  Solving for e, Initial residual = 0, Final residual = 0, No Iterations 0
PIMPLE: Iteration 2
diagonal:  Solving for rho, Initial residual = 0, Final residual = 0, No Iterations 0
diagonal:  Solving for Ux, Initial residual = 0, Final residual = 0, No Iterations 0
diagonal:  Solving for e, Initial residual = 0, Final residual = 0, No Iterations 0
ExecutionTime = 1.308 s  ClockTime = 1 s

Courant Number mean: 0.141734 max: 0.199628
deltaT = 0.000182482
Time = 0.198723s

PIMPLE: Iteration 1
diagonal:  Solving for rho, Initial residual = 0, Final residual = 0, No Iterations 0
diagonal:  Solving for Ux, Initial residual = 0, Final residual = 0, No Iterations 0
diagonal:  Solving for e, Initial residual = 0, Final residual = 0, No Iterations 0
PIMPLE: Iteration 2
diagonal:  Solving for rho, Initial residual = 0, Final residual = 0, No Iterations 0
diagonal:  Solving for Ux, Initial residual = 0, Final residual = 0, No Iterations 0
diagonal:  Solving for e, Initial residual = 0, Final residual = 0, No Iterations 0
ExecutionTime = 1.30903 s  ClockTime = 1 s

Courant Number mean: 0.14177 max: 0.199628
deltaT = 0.000182482
Time = 0.198905s

PIMPLE: Iteration 1
diagonal:  Solving for rho, Initial residual = 0, Final residual = 0, No Iterations 0
diagonal:  Solving for Ux, Initial residual = 0, Final residual = 0, No Iterations 0
diagonal:  Solving for e, Initial residual = 0, Final residual = 0, No Iterations 0
PIMPLE: Iteration 2
diagonal:  Solving for rho, Initial residual = 0, Final residual = 0, No Iterations 0
diagonal:  Solving for Ux, Initial residual = 0, Final residual = 0, No Iterations 0
diagonal:  Solving for e, Initial residual = 0, Final residual = 0, No Iterations 0
ExecutionTime = 1.31006 s  ClockTime = 1 s

Courant Number mean: 0.141807 max: 0.199628
deltaT = 0.000182482
Time = 0.199088s

PIMPLE: Iteration 1
diagonal:  Solving for rho, Initial residual = 0, Final residual = 0, No Iterations 0
diagonal:  Solving for Ux, Initial residual = 0, Final residual = 0, No Iterations 0
diagonal:  Solving for e, Initial residual = 0, Final residual = 0, No Iterations 0
PIMPLE: Iteration 2
diagonal:  Solving for rho, Initial residual = 0, Final residual = 0, No Iterations 0
diagonal:  Solving for Ux, Initial residual = 0, Final residual = 0, No Iterations 0
diagonal:  Solving for e, Initial residual = 0, Final residual = 0, No Iterations 0
ExecutionTime = 1.31107 s  ClockTime = 1 s

Courant Number mean: 0.141843 max: 0.199628
deltaT = 0.000182482
Time = 0.19927s

PIMPLE: Iteration 1
diagonal:  Solving for rho, Initial residual = 0, Final residual = 0, No Iterations 0
diagonal:  Solving for Ux, Initial residual = 0, Final residual = 0, No Iterations 0
diagonal:  Solving for e, Initial residual = 0, Final residual = 0, No Iterations 0
PIMPLE: Iteration 2
diagonal:  Solving for rho, Initial residual = 0, Final residual = 0, No Iterations 0
diagonal:  Solving for Ux, Initial residual = 0, Final residual = 0, No Iterations 0
diagonal:  Solving for e, Initial residual = 0, Final residual = 0, No Iterations 0
ExecutionTime = 1.3121 s  ClockTime = 1 s

Courant Number mean: 0.14188 max: 0.199628
deltaT = 0.000182482
Time = 0.199453s

PIMPLE: Iteration 1
diagonal:  Solving for rho, Initial residual = 0, Final residual = 0, No Iterations 0
diagonal:  Solving for Ux, Initial residual = 0, Final residual = 0, No Iterations 0
diagonal:  Solving for e, Initial residual = 0, Final residual = 0, No Iterations 0
PIMPLE: Iteration 2
diagonal:  Solving for rho, Initial residual = 0, Final residual = 0, No Iterations 0
diagonal:  Solving for Ux, Initial residual = 0, Final residual = 0, No Iterations 0
diagonal:  Solving for e, Initial residual = 0, Final residual = 0, No Iterations 0
ExecutionTime = 1.31311 s  ClockTime = 1 s

Courant Number mean: 0.141916 max: 0.199628
deltaT = 0.000182482
Time = 0.199635s

PIMPLE: Iteration 1
diagonal:  Solving for rho, Initial residual = 0, Final residual = 0, No Iterations 0
diagonal:  Solving for Ux, Initial residual = 0, Final residual = 0, No Iterations 0
diagonal:  Solving for e, Initial residual = 0, Final residual = 0, No Iterations 0
PIMPLE: Iteration 2
diagonal:  Solving for rho, Initial residual = 0, Final residual = 0, No Iterations 0
diagonal:  Solving for Ux, Initial residual = 0, Final residual = 0, No Iterations 0
diagonal:  Solving for e, Initial residual = 0, Final residual = 0, No Iterations 0
ExecutionTime = 1.31414 s  ClockTime = 1 s

Courant Number mean: 0.141952 max: 0.199628
deltaT = 0.000182482
Time = 0.199818s

PIMPLE: Iteration 1
diagonal:  Solving for rho, Initial residual = 0, Final residual = 0, No Iterations 0
diagonal:  Solving for Ux, Initial residual = 0, Final residual = 0, No Iterations 0
diagonal:  Solving for e, Initial residual = 0, Final residual = 0, No Iterations 0
PIMPLE: Iteration 2
diagonal:  Solving for rho, Initial residual = 0, Final residual = 0, No Iterations 0
diagonal:  Solving for Ux, Initial residual = 0, Final residual = 0, No Iterations 0
diagonal:  Solving for e, Initial residual = 0, Final residual = 0, No Iterations 0
ExecutionTime = 1.31514 s  ClockTime = 1 s

Courant Number mean: 0.141989 max: 0.199628
deltaT = 0.000182482
Time = 0.2s

PIMPLE: Iteration 1
diagonal:  Solving for rho, Initial residual = 0, Final residual = 0, No Iterations 0
diagonal:  Solving for Ux, Initial residual = 0, Final residual = 0, No Iterations 0
diagonal:  Solving for e, Initial residual = 0, Final residual = 0, No Iterations 0
PIMPLE: Iteration 2
diagonal:  Solving for rho, Initial residual = 0, Final residual = 0, No Iterations 0
diagonal:  Solving for Ux, Initial residual = 0, Final residual = 0, No Iterations 0
diagonal:  Solving for e, Initial residual = 0, Final residual = 0, No Iterations 0
ExecutionTime = 1.31849 s  ClockTime = 1 s

End

