/*---------------------------------------------------------------------------*\
  =========                 |
  \\      /  F ield         | OpenFOAM: The Open Source CFD Toolbox
   \\    /   O peration     | Website:  https://openfoam.org
    \\  /    A nd           | Version:  12
     \\/     M anipulation  |
\*---------------------------------------------------------------------------*/
Build  : 12-6aa359dae696
Exec   : checkMesh
Date   : Dec 23 2024
Time   : 22:21:21
Host   : "LAPTOP-4O98FBV9"
PID    : 5352
I/O    : uncollated
Case   : /home/bsa/OpenFOAM/bsa-12/run/cylinder
nProcs : 1
sigFpe : Enabling floating point exception trapping (FOAM_SIGFPE).
fileModificationChecking : Monitoring run-time modified files using timeStampMaster (fileModificationSkew 10)
allowSystemOperations : Allowing user-supplied system call operations

// * * * * * * * * * * * * * * * * * * * * * * * * * * * * * * * * * * * * * //
Create time

Create polyMesh for time = 0

Time = 0s

Mesh stats
    points:           85720
    internal points:  0
    faces:            170060
    internal faces:   84340
    cells:            42400
    faces per cell:   6
    boundary patches: 6
    point zones:      0
    face zones:       0
    cell zones:       0

Overall number of cells of each type:
    hexahedra:     42400
    prisms:        0
    wedges:        0
    pyramids:      0
    tet wedges:    0
    tetrahedra:    0
    polyhedra:     0

Checking topology...
    Boundary definition OK.
    Cell to face addressing OK.
    Point usage OK.
    Upper triangular ordering OK.
    Face vertices OK.
    Number of regions: 1 (OK).

Checking patch topology for multiply connected surfaces...
    Patch               Faces    Points   Surface topology                  
    top                 260      522      ok (non-closed singly connected)  
    bottom              260      522      ok (non-closed singly connected)  
    inlet               120      242      ok (non-closed singly connected)  
    outlet              120      242      ok (non-closed singly connected)  
    cylinder            160      320      ok (non-closed singly connected)  
    frontAndBack        84800    85720    ok (non-closed singly connected)  

Checking geometry...
    Overall domain bounding box (-2 -2 -0.5) (4 2 0.5)
    Mesh has 2 geometric (non-empty/wedge) directions (1 1 0)
    Mesh has 2 solution (non-empty) directions (1 1 0)
    All edges aligned with or perpendicular to non-empty directions.
    Max cell openness = 8.27668e-09 OK.
    Max aspect ratio = 233.939 OK.
    Minimum face area = 1.9523e-11. Maximum face area = 0.127222.  Face area magnitudes OK.
 ***Zero or negative cell volume detected.  Minimum negative volume: -0.00531213, Number of negative volume cells: 13910
    Mesh non-orthogonality Max: 180 average: 64.9791
   *Number of severely non-orthogonal (> 70 degrees) faces: 3424.
 ***Number of non-orthogonality errors: 28065.
 ***Error in face pyramids: 83462 faces are incorrectly oriented.
 ***Max skewness = 7516.66, 1286 highly skew faces detected which may impair the quality of the results
    Coupled point location match (average 0) OK.

Failed 4 mesh checks.

End

